# generated using pymatgen
data_AcGd2O4
_symmetry_space_group_name_H-M   'P 1'
_cell_length_a   10.03914853
_cell_length_b   10.03914853
_cell_length_c   10.03914853
_cell_angle_alpha   90.00000000
_cell_angle_beta   90.00000000
_cell_angle_gamma   90.00000000
_symmetry_Int_Tables_number   1
_chemical_formula_structural   AcGd2O4
_chemical_formula_sum   'Ac8 Gd16 O32'
_cell_volume   1011.79059598
_cell_formula_units_Z   8
loop_
 _symmetry_equiv_pos_site_id
 _symmetry_equiv_pos_as_xyz
  1  'x, y, z'
loop_
 _atom_site_type_symbol
 _atom_site_label
 _atom_site_symmetry_multiplicity
 _atom_site_fract_x
 _atom_site_fract_y
 _atom_site_fract_z
 _atom_site_occupancy
  Ac  Ac0  1  0.500000  0.500000  0.000000  1.0
  Ac  Ac1  1  0.250000  0.250000  0.250000  1.0
  Ac  Ac2  1  0.500000  0.000000  0.500000  1.0
  Ac  Ac3  1  0.250000  0.750000  0.750000  1.0
  Ac  Ac4  1  0.000000  0.500000  0.500000  1.0
  Ac  Ac5  1  0.750000  0.250000  0.750000  1.0
  Ac  Ac6  1  0.000000  0.000000  0.000000  1.0
  Ac  Ac7  1  0.750000  0.750000  0.250000  1.0
  Gd  Gd8  1  0.125000  0.125000  0.625000  1.0
  Gd  Gd9  1  0.375000  0.375000  0.625000  1.0
  Gd  Gd10  1  0.125000  0.375000  0.875000  1.0
  Gd  Gd11  1  0.375000  0.125000  0.875000  1.0
  Gd  Gd12  1  0.125000  0.625000  0.125000  1.0
  Gd  Gd13  1  0.375000  0.875000  0.125000  1.0
  Gd  Gd14  1  0.125000  0.875000  0.375000  1.0
  Gd  Gd15  1  0.375000  0.625000  0.375000  1.0
  Gd  Gd16  1  0.625000  0.125000  0.125000  1.0
  Gd  Gd17  1  0.875000  0.375000  0.125000  1.0
  Gd  Gd18  1  0.625000  0.375000  0.375000  1.0
  Gd  Gd19  1  0.875000  0.125000  0.375000  1.0
  Gd  Gd20  1  0.625000  0.625000  0.625000  1.0
  Gd  Gd21  1  0.875000  0.875000  0.625000  1.0
  Gd  Gd22  1  0.625000  0.875000  0.875000  1.0
  Gd  Gd23  1  0.875000  0.625000  0.875000  1.0
  O  O24  1  0.108830  0.108830  0.391170  1.0
  O  O25  1  0.358830  0.358830  0.858830  1.0
  O  O26  1  0.141170  0.858830  0.141170  1.0
  O  O27  1  0.358830  0.641170  0.141170  1.0
  O  O28  1  0.108830  0.391170  0.108830  1.0
  O  O29  1  0.391170  0.108830  0.108830  1.0
  O  O30  1  0.141170  0.141170  0.858830  1.0
  O  O31  1  0.391170  0.391170  0.391170  1.0
  O  O32  1  0.108830  0.608830  0.891170  1.0
  O  O33  1  0.358830  0.858830  0.358830  1.0
  O  O34  1  0.141170  0.358830  0.641170  1.0
  O  O35  1  0.358830  0.141170  0.641170  1.0
  O  O36  1  0.108830  0.891170  0.608830  1.0
  O  O37  1  0.391170  0.608830  0.608830  1.0
  O  O38  1  0.141170  0.641170  0.358830  1.0
  O  O39  1  0.391170  0.891170  0.891170  1.0
  O  O40  1  0.608830  0.108830  0.891170  1.0
  O  O41  1  0.858830  0.358830  0.358830  1.0
  O  O42  1  0.641170  0.858830  0.641170  1.0
  O  O43  1  0.858830  0.641170  0.641170  1.0
  O  O44  1  0.608830  0.391170  0.608830  1.0
  O  O45  1  0.891170  0.108830  0.608830  1.0
  O  O46  1  0.641170  0.141170  0.358830  1.0
  O  O47  1  0.891170  0.391170  0.891170  1.0
  O  O48  1  0.608830  0.608830  0.391170  1.0
  O  O49  1  0.858830  0.858830  0.858830  1.0
  O  O50  1  0.641170  0.358830  0.141170  1.0
  O  O51  1  0.858830  0.141170  0.141170  1.0
  O  O52  1  0.608830  0.891170  0.108830  1.0
  O  O53  1  0.891170  0.608830  0.108830  1.0
  O  O54  1  0.641170  0.641170  0.858830  1.0
  O  O55  1  0.891170  0.891170  0.391170  1.0
