# generated using pymatgen
data_Ce2AgO4
_symmetry_space_group_name_H-M   'P 1'
_cell_length_a   10.01338155
_cell_length_b   10.01338155
_cell_length_c   10.01338155
_cell_angle_alpha   90.00000000
_cell_angle_beta   90.00000000
_cell_angle_gamma   90.00000000
_symmetry_Int_Tables_number   1
_chemical_formula_structural   Ce2AgO4
_chemical_formula_sum   'Ce16 Ag8 O32'
_cell_volume   1004.01984081
_cell_formula_units_Z   8
loop_
 _symmetry_equiv_pos_site_id
 _symmetry_equiv_pos_as_xyz
  1  'x, y, z'
loop_
 _atom_site_type_symbol
 _atom_site_label
 _atom_site_symmetry_multiplicity
 _atom_site_fract_x
 _atom_site_fract_y
 _atom_site_fract_z
 _atom_site_occupancy
  Ce  Ce0  1  0.125000  0.125000  0.625000  1.0
  Ce  Ce1  1  0.375000  0.375000  0.625000  1.0
  Ce  Ce2  1  0.125000  0.375000  0.875000  1.0
  Ce  Ce3  1  0.375000  0.125000  0.875000  1.0
  Ce  Ce4  1  0.125000  0.625000  0.125000  1.0
  Ce  Ce5  1  0.375000  0.875000  0.125000  1.0
  Ce  Ce6  1  0.125000  0.875000  0.375000  1.0
  Ce  Ce7  1  0.375000  0.625000  0.375000  1.0
  Ce  Ce8  1  0.625000  0.125000  0.125000  1.0
  Ce  Ce9  1  0.875000  0.375000  0.125000  1.0
  Ce  Ce10  1  0.625000  0.375000  0.375000  1.0
  Ce  Ce11  1  0.875000  0.125000  0.375000  1.0
  Ce  Ce12  1  0.625000  0.625000  0.625000  1.0
  Ce  Ce13  1  0.875000  0.875000  0.625000  1.0
  Ce  Ce14  1  0.625000  0.875000  0.875000  1.0
  Ce  Ce15  1  0.875000  0.625000  0.875000  1.0
  Ag  Ag16  1  0.500000  0.500000  0.000000  1.0
  Ag  Ag17  1  0.250000  0.250000  0.250000  1.0
  Ag  Ag18  1  0.500000  0.000000  0.500000  1.0
  Ag  Ag19  1  0.250000  0.750000  0.750000  1.0
  Ag  Ag20  1  0.000000  0.500000  0.500000  1.0
  Ag  Ag21  1  0.750000  0.250000  0.750000  1.0
  Ag  Ag22  1  0.000000  0.000000  0.000000  1.0
  Ag  Ag23  1  0.750000  0.750000  0.250000  1.0
  O  O24  1  0.105540  0.105540  0.394460  1.0
  O  O25  1  0.355540  0.355540  0.855540  1.0
  O  O26  1  0.144460  0.855540  0.144460  1.0
  O  O27  1  0.355540  0.644460  0.144460  1.0
  O  O28  1  0.105540  0.394460  0.105540  1.0
  O  O29  1  0.394460  0.105540  0.105540  1.0
  O  O30  1  0.144460  0.144460  0.855540  1.0
  O  O31  1  0.394460  0.394460  0.394460  1.0
  O  O32  1  0.105540  0.605540  0.894460  1.0
  O  O33  1  0.355540  0.855540  0.355540  1.0
  O  O34  1  0.144460  0.355540  0.644460  1.0
  O  O35  1  0.355540  0.144460  0.644460  1.0
  O  O36  1  0.105540  0.894460  0.605540  1.0
  O  O37  1  0.394460  0.605540  0.605540  1.0
  O  O38  1  0.144460  0.644460  0.355540  1.0
  O  O39  1  0.394460  0.894460  0.894460  1.0
  O  O40  1  0.605540  0.105540  0.894460  1.0
  O  O41  1  0.855540  0.355540  0.355540  1.0
  O  O42  1  0.644460  0.855540  0.644460  1.0
  O  O43  1  0.855540  0.644460  0.644460  1.0
  O  O44  1  0.605540  0.394460  0.605540  1.0
  O  O45  1  0.894460  0.105540  0.605540  1.0
  O  O46  1  0.644460  0.144460  0.355540  1.0
  O  O47  1  0.894460  0.394460  0.894460  1.0
  O  O48  1  0.605540  0.605540  0.394460  1.0
  O  O49  1  0.855540  0.855540  0.855540  1.0
  O  O50  1  0.644460  0.355540  0.144460  1.0
  O  O51  1  0.855540  0.144460  0.144460  1.0
  O  O52  1  0.605540  0.894460  0.105540  1.0
  O  O53  1  0.894460  0.605540  0.105540  1.0
  O  O54  1  0.644460  0.644460  0.855540  1.0
  O  O55  1  0.894460  0.894460  0.394460  1.0
