# generated using pymatgen
data_Cs2AsO4
_symmetry_space_group_name_H-M   'P 1'
_cell_length_a   10.79859535
_cell_length_b   10.79859535
_cell_length_c   10.79859535
_cell_angle_alpha   90.00000000
_cell_angle_beta   90.00000000
_cell_angle_gamma   90.00000000
_symmetry_Int_Tables_number   1
_chemical_formula_structural   Cs2AsO4
_chemical_formula_sum   'Cs16 As8 O32'
_cell_volume   1259.22054915
_cell_formula_units_Z   8
loop_
 _symmetry_equiv_pos_site_id
 _symmetry_equiv_pos_as_xyz
  1  'x, y, z'
loop_
 _atom_site_type_symbol
 _atom_site_label
 _atom_site_symmetry_multiplicity
 _atom_site_fract_x
 _atom_site_fract_y
 _atom_site_fract_z
 _atom_site_occupancy
  Cs  Cs0  1  0.125000  0.125000  0.625000  1.0
  Cs  Cs1  1  0.375000  0.375000  0.625000  1.0
  Cs  Cs2  1  0.125000  0.375000  0.875000  1.0
  Cs  Cs3  1  0.375000  0.125000  0.875000  1.0
  Cs  Cs4  1  0.125000  0.625000  0.125000  1.0
  Cs  Cs5  1  0.375000  0.875000  0.125000  1.0
  Cs  Cs6  1  0.125000  0.875000  0.375000  1.0
  Cs  Cs7  1  0.375000  0.625000  0.375000  1.0
  Cs  Cs8  1  0.625000  0.125000  0.125000  1.0
  Cs  Cs9  1  0.875000  0.375000  0.125000  1.0
  Cs  Cs10  1  0.625000  0.375000  0.375000  1.0
  Cs  Cs11  1  0.875000  0.125000  0.375000  1.0
  Cs  Cs12  1  0.625000  0.625000  0.625000  1.0
  Cs  Cs13  1  0.875000  0.875000  0.625000  1.0
  Cs  Cs14  1  0.625000  0.875000  0.875000  1.0
  Cs  Cs15  1  0.875000  0.625000  0.875000  1.0
  As  As16  1  0.500000  0.500000  0.000000  1.0
  As  As17  1  0.250000  0.250000  0.250000  1.0
  As  As18  1  0.500000  0.000000  0.500000  1.0
  As  As19  1  0.250000  0.750000  0.750000  1.0
  As  As20  1  0.000000  0.500000  0.500000  1.0
  As  As21  1  0.750000  0.250000  0.750000  1.0
  As  As22  1  0.000000  0.000000  0.000000  1.0
  As  As23  1  0.750000  0.750000  0.250000  1.0
  O  O24  1  0.157433  0.157433  0.342567  1.0
  O  O25  1  0.407433  0.407433  0.907433  1.0
  O  O26  1  0.092567  0.907433  0.092567  1.0
  O  O27  1  0.407433  0.592567  0.092567  1.0
  O  O28  1  0.157433  0.342567  0.157433  1.0
  O  O29  1  0.342567  0.157433  0.157433  1.0
  O  O30  1  0.092567  0.092567  0.907433  1.0
  O  O31  1  0.342567  0.342567  0.342567  1.0
  O  O32  1  0.157433  0.657433  0.842567  1.0
  O  O33  1  0.407433  0.907433  0.407433  1.0
  O  O34  1  0.092567  0.407433  0.592567  1.0
  O  O35  1  0.407433  0.092567  0.592567  1.0
  O  O36  1  0.157433  0.842567  0.657433  1.0
  O  O37  1  0.342567  0.657433  0.657433  1.0
  O  O38  1  0.092567  0.592567  0.407433  1.0
  O  O39  1  0.342567  0.842567  0.842567  1.0
  O  O40  1  0.657433  0.157433  0.842567  1.0
  O  O41  1  0.907433  0.407433  0.407433  1.0
  O  O42  1  0.592567  0.907433  0.592567  1.0
  O  O43  1  0.907433  0.592567  0.592567  1.0
  O  O44  1  0.657433  0.342567  0.657433  1.0
  O  O45  1  0.842567  0.157433  0.657433  1.0
  O  O46  1  0.592567  0.092567  0.407433  1.0
  O  O47  1  0.842567  0.342567  0.842567  1.0
  O  O48  1  0.657433  0.657433  0.342567  1.0
  O  O49  1  0.907433  0.907433  0.907433  1.0
  O  O50  1  0.592567  0.407433  0.092567  1.0
  O  O51  1  0.907433  0.092567  0.092567  1.0
  O  O52  1  0.657433  0.842567  0.157433  1.0
  O  O53  1  0.842567  0.657433  0.157433  1.0
  O  O54  1  0.592567  0.592567  0.907433  1.0
  O  O55  1  0.842567  0.842567  0.342567  1.0
