# generated using pymatgen
data_Mo2AsO4
_symmetry_space_group_name_H-M   'P 1'
_cell_length_a   8.79970348
_cell_length_b   8.79970348
_cell_length_c   8.79970348
_cell_angle_alpha   90.00000000
_cell_angle_beta   90.00000000
_cell_angle_gamma   90.00000000
_symmetry_Int_Tables_number   1
_chemical_formula_structural   Mo2AsO4
_chemical_formula_sum   'Mo16 As8 O32'
_cell_volume   681.40311376
_cell_formula_units_Z   8
loop_
 _symmetry_equiv_pos_site_id
 _symmetry_equiv_pos_as_xyz
  1  'x, y, z'
loop_
 _atom_site_type_symbol
 _atom_site_label
 _atom_site_symmetry_multiplicity
 _atom_site_fract_x
 _atom_site_fract_y
 _atom_site_fract_z
 _atom_site_occupancy
  Mo  Mo0  1  0.125000  0.125000  0.625000  1.0
  Mo  Mo1  1  0.375000  0.375000  0.625000  1.0
  Mo  Mo2  1  0.125000  0.375000  0.875000  1.0
  Mo  Mo3  1  0.375000  0.125000  0.875000  1.0
  Mo  Mo4  1  0.125000  0.625000  0.125000  1.0
  Mo  Mo5  1  0.375000  0.875000  0.125000  1.0
  Mo  Mo6  1  0.125000  0.875000  0.375000  1.0
  Mo  Mo7  1  0.375000  0.625000  0.375000  1.0
  Mo  Mo8  1  0.625000  0.125000  0.125000  1.0
  Mo  Mo9  1  0.875000  0.375000  0.125000  1.0
  Mo  Mo10  1  0.625000  0.375000  0.375000  1.0
  Mo  Mo11  1  0.875000  0.125000  0.375000  1.0
  Mo  Mo12  1  0.625000  0.625000  0.625000  1.0
  Mo  Mo13  1  0.875000  0.875000  0.625000  1.0
  Mo  Mo14  1  0.625000  0.875000  0.875000  1.0
  Mo  Mo15  1  0.875000  0.625000  0.875000  1.0
  As  As16  1  0.500000  0.500000  0.000000  1.0
  As  As17  1  0.250000  0.250000  0.250000  1.0
  As  As18  1  0.500000  0.000000  0.500000  1.0
  As  As19  1  0.250000  0.750000  0.750000  1.0
  As  As20  1  0.000000  0.500000  0.500000  1.0
  As  As21  1  0.750000  0.250000  0.750000  1.0
  As  As22  1  0.000000  0.000000  0.000000  1.0
  As  As23  1  0.750000  0.750000  0.250000  1.0
  O  O24  1  0.119140  0.119140  0.380860  1.0
  O  O25  1  0.369140  0.369140  0.869140  1.0
  O  O26  1  0.130860  0.869140  0.130860  1.0
  O  O27  1  0.369140  0.630860  0.130860  1.0
  O  O28  1  0.119140  0.380860  0.119140  1.0
  O  O29  1  0.380860  0.119140  0.119140  1.0
  O  O30  1  0.130860  0.130860  0.869140  1.0
  O  O31  1  0.380860  0.380860  0.380860  1.0
  O  O32  1  0.119140  0.619140  0.880860  1.0
  O  O33  1  0.369140  0.869140  0.369140  1.0
  O  O34  1  0.130860  0.369140  0.630860  1.0
  O  O35  1  0.369140  0.130860  0.630860  1.0
  O  O36  1  0.119140  0.880860  0.619140  1.0
  O  O37  1  0.380860  0.619140  0.619140  1.0
  O  O38  1  0.130860  0.630860  0.369140  1.0
  O  O39  1  0.380860  0.880860  0.880860  1.0
  O  O40  1  0.619140  0.119140  0.880860  1.0
  O  O41  1  0.869140  0.369140  0.369140  1.0
  O  O42  1  0.630860  0.869140  0.630860  1.0
  O  O43  1  0.869140  0.630860  0.630860  1.0
  O  O44  1  0.619140  0.380860  0.619140  1.0
  O  O45  1  0.880860  0.119140  0.619140  1.0
  O  O46  1  0.630860  0.130860  0.369140  1.0
  O  O47  1  0.880860  0.380860  0.880860  1.0
  O  O48  1  0.619140  0.619140  0.380860  1.0
  O  O49  1  0.869140  0.869140  0.869140  1.0
  O  O50  1  0.630860  0.369140  0.130860  1.0
  O  O51  1  0.869140  0.130860  0.130860  1.0
  O  O52  1  0.619140  0.880860  0.119140  1.0
  O  O53  1  0.880860  0.619140  0.119140  1.0
  O  O54  1  0.630860  0.630860  0.869140  1.0
  O  O55  1  0.880860  0.880860  0.380860  1.0
