# generated using pymatgen
data_As(PdO2)2
_symmetry_space_group_name_H-M   'P 1'
_cell_length_a   8.87445880
_cell_length_b   8.87445880
_cell_length_c   8.87445880
_cell_angle_alpha   90.00000000
_cell_angle_beta   90.00000000
_cell_angle_gamma   90.00000000
_symmetry_Int_Tables_number   1
_chemical_formula_structural   As(PdO2)2
_chemical_formula_sum   'As8 Pd16 O32'
_cell_volume   698.91704686
_cell_formula_units_Z   8
loop_
 _symmetry_equiv_pos_site_id
 _symmetry_equiv_pos_as_xyz
  1  'x, y, z'
loop_
 _atom_site_type_symbol
 _atom_site_label
 _atom_site_symmetry_multiplicity
 _atom_site_fract_x
 _atom_site_fract_y
 _atom_site_fract_z
 _atom_site_occupancy
  As  As0  1  0.500000  0.500000  0.000000  1.0
  As  As1  1  0.250000  0.250000  0.250000  1.0
  As  As2  1  0.500000  0.000000  0.500000  1.0
  As  As3  1  0.250000  0.750000  0.750000  1.0
  As  As4  1  0.000000  0.500000  0.500000  1.0
  As  As5  1  0.750000  0.250000  0.750000  1.0
  As  As6  1  0.000000  0.000000  0.000000  1.0
  As  As7  1  0.750000  0.750000  0.250000  1.0
  Pd  Pd8  1  0.125000  0.125000  0.625000  1.0
  Pd  Pd9  1  0.375000  0.375000  0.625000  1.0
  Pd  Pd10  1  0.125000  0.375000  0.875000  1.0
  Pd  Pd11  1  0.375000  0.125000  0.875000  1.0
  Pd  Pd12  1  0.125000  0.625000  0.125000  1.0
  Pd  Pd13  1  0.375000  0.875000  0.125000  1.0
  Pd  Pd14  1  0.125000  0.875000  0.375000  1.0
  Pd  Pd15  1  0.375000  0.625000  0.375000  1.0
  Pd  Pd16  1  0.625000  0.125000  0.125000  1.0
  Pd  Pd17  1  0.875000  0.375000  0.125000  1.0
  Pd  Pd18  1  0.625000  0.375000  0.375000  1.0
  Pd  Pd19  1  0.875000  0.125000  0.375000  1.0
  Pd  Pd20  1  0.625000  0.625000  0.625000  1.0
  Pd  Pd21  1  0.875000  0.875000  0.625000  1.0
  Pd  Pd22  1  0.625000  0.875000  0.875000  1.0
  Pd  Pd23  1  0.875000  0.625000  0.875000  1.0
  O  O24  1  0.134643  0.134643  0.365357  1.0
  O  O25  1  0.384643  0.384643  0.884643  1.0
  O  O26  1  0.115357  0.884643  0.115357  1.0
  O  O27  1  0.384643  0.615357  0.115357  1.0
  O  O28  1  0.134643  0.365357  0.134643  1.0
  O  O29  1  0.365357  0.134643  0.134643  1.0
  O  O30  1  0.115357  0.115357  0.884643  1.0
  O  O31  1  0.365357  0.365357  0.365357  1.0
  O  O32  1  0.134643  0.634643  0.865357  1.0
  O  O33  1  0.384643  0.884643  0.384643  1.0
  O  O34  1  0.115357  0.384643  0.615357  1.0
  O  O35  1  0.384643  0.115357  0.615357  1.0
  O  O36  1  0.134643  0.865357  0.634643  1.0
  O  O37  1  0.365357  0.634643  0.634643  1.0
  O  O38  1  0.115357  0.615357  0.384643  1.0
  O  O39  1  0.365357  0.865357  0.865357  1.0
  O  O40  1  0.634643  0.134643  0.865357  1.0
  O  O41  1  0.884643  0.384643  0.384643  1.0
  O  O42  1  0.615357  0.884643  0.615357  1.0
  O  O43  1  0.884643  0.615357  0.615357  1.0
  O  O44  1  0.634643  0.365357  0.634643  1.0
  O  O45  1  0.865357  0.134643  0.634643  1.0
  O  O46  1  0.615357  0.115357  0.384643  1.0
  O  O47  1  0.865357  0.365357  0.865357  1.0
  O  O48  1  0.634643  0.634643  0.365357  1.0
  O  O49  1  0.884643  0.884643  0.884643  1.0
  O  O50  1  0.615357  0.384643  0.115357  1.0
  O  O51  1  0.884643  0.115357  0.115357  1.0
  O  O52  1  0.634643  0.865357  0.134643  1.0
  O  O53  1  0.865357  0.634643  0.134643  1.0
  O  O54  1  0.615357  0.615357  0.884643  1.0
  O  O55  1  0.865357  0.865357  0.365357  1.0
