# generated using pymatgen
data_Tc2AsO4
_symmetry_space_group_name_H-M   'P 1'
_cell_length_a   8.81390218
_cell_length_b   8.81390218
_cell_length_c   8.81390218
_cell_angle_alpha   90.00000000
_cell_angle_beta   90.00000000
_cell_angle_gamma   90.00000000
_symmetry_Int_Tables_number   1
_chemical_formula_structural   Tc2AsO4
_chemical_formula_sum   'Tc16 As8 O32'
_cell_volume   684.70685942
_cell_formula_units_Z   8
loop_
 _symmetry_equiv_pos_site_id
 _symmetry_equiv_pos_as_xyz
  1  'x, y, z'
loop_
 _atom_site_type_symbol
 _atom_site_label
 _atom_site_symmetry_multiplicity
 _atom_site_fract_x
 _atom_site_fract_y
 _atom_site_fract_z
 _atom_site_occupancy
  Tc  Tc0  1  0.125000  0.125000  0.625000  1.0
  Tc  Tc1  1  0.375000  0.375000  0.625000  1.0
  Tc  Tc2  1  0.125000  0.375000  0.875000  1.0
  Tc  Tc3  1  0.375000  0.125000  0.875000  1.0
  Tc  Tc4  1  0.125000  0.625000  0.125000  1.0
  Tc  Tc5  1  0.375000  0.875000  0.125000  1.0
  Tc  Tc6  1  0.125000  0.875000  0.375000  1.0
  Tc  Tc7  1  0.375000  0.625000  0.375000  1.0
  Tc  Tc8  1  0.625000  0.125000  0.125000  1.0
  Tc  Tc9  1  0.875000  0.375000  0.125000  1.0
  Tc  Tc10  1  0.625000  0.375000  0.375000  1.0
  Tc  Tc11  1  0.875000  0.125000  0.375000  1.0
  Tc  Tc12  1  0.625000  0.625000  0.625000  1.0
  Tc  Tc13  1  0.875000  0.875000  0.625000  1.0
  Tc  Tc14  1  0.625000  0.875000  0.875000  1.0
  Tc  Tc15  1  0.875000  0.625000  0.875000  1.0
  As  As16  1  0.500000  0.500000  0.000000  1.0
  As  As17  1  0.250000  0.250000  0.250000  1.0
  As  As18  1  0.500000  0.000000  0.500000  1.0
  As  As19  1  0.250000  0.750000  0.750000  1.0
  As  As20  1  0.000000  0.500000  0.500000  1.0
  As  As21  1  0.750000  0.250000  0.750000  1.0
  As  As22  1  0.000000  0.000000  0.000000  1.0
  As  As23  1  0.750000  0.750000  0.250000  1.0
  O  O24  1  0.114057  0.114057  0.385943  1.0
  O  O25  1  0.364057  0.364057  0.864057  1.0
  O  O26  1  0.135943  0.864057  0.135943  1.0
  O  O27  1  0.364057  0.635943  0.135943  1.0
  O  O28  1  0.114057  0.385943  0.114057  1.0
  O  O29  1  0.385943  0.114057  0.114057  1.0
  O  O30  1  0.135943  0.135943  0.864057  1.0
  O  O31  1  0.385943  0.385943  0.385943  1.0
  O  O32  1  0.114057  0.614057  0.885943  1.0
  O  O33  1  0.364057  0.864057  0.364057  1.0
  O  O34  1  0.135943  0.364057  0.635943  1.0
  O  O35  1  0.364057  0.135943  0.635943  1.0
  O  O36  1  0.114057  0.885943  0.614057  1.0
  O  O37  1  0.385943  0.614057  0.614057  1.0
  O  O38  1  0.135943  0.635943  0.364057  1.0
  O  O39  1  0.385943  0.885943  0.885943  1.0
  O  O40  1  0.614057  0.114057  0.885943  1.0
  O  O41  1  0.864057  0.364057  0.364057  1.0
  O  O42  1  0.635943  0.864057  0.635943  1.0
  O  O43  1  0.864057  0.635943  0.635943  1.0
  O  O44  1  0.614057  0.385943  0.614057  1.0
  O  O45  1  0.885943  0.114057  0.614057  1.0
  O  O46  1  0.635943  0.135943  0.364057  1.0
  O  O47  1  0.885943  0.385943  0.885943  1.0
  O  O48  1  0.614057  0.614057  0.385943  1.0
  O  O49  1  0.864057  0.864057  0.864057  1.0
  O  O50  1  0.635943  0.364057  0.135943  1.0
  O  O51  1  0.864057  0.135943  0.135943  1.0
  O  O52  1  0.614057  0.885943  0.114057  1.0
  O  O53  1  0.885943  0.614057  0.114057  1.0
  O  O54  1  0.635943  0.635943  0.864057  1.0
  O  O55  1  0.885943  0.885943  0.385943  1.0
