# generated using pymatgen
data_Zn2AuO4
_symmetry_space_group_name_H-M   'P 1'
_cell_length_a   8.78161568
_cell_length_b   8.78161568
_cell_length_c   8.78161568
_cell_angle_alpha   90.00000000
_cell_angle_beta   90.00000000
_cell_angle_gamma   90.00000000
_symmetry_Int_Tables_number   1
_chemical_formula_structural   Zn2AuO4
_chemical_formula_sum   'Zn16 Au8 O32'
_cell_volume   677.20987227
_cell_formula_units_Z   8
loop_
 _symmetry_equiv_pos_site_id
 _symmetry_equiv_pos_as_xyz
  1  'x, y, z'
loop_
 _atom_site_type_symbol
 _atom_site_label
 _atom_site_symmetry_multiplicity
 _atom_site_fract_x
 _atom_site_fract_y
 _atom_site_fract_z
 _atom_site_occupancy
  Zn  Zn0  1  0.125000  0.125000  0.625000  1.0
  Zn  Zn1  1  0.375000  0.375000  0.625000  1.0
  Zn  Zn2  1  0.125000  0.375000  0.875000  1.0
  Zn  Zn3  1  0.375000  0.125000  0.875000  1.0
  Zn  Zn4  1  0.125000  0.625000  0.125000  1.0
  Zn  Zn5  1  0.375000  0.875000  0.125000  1.0
  Zn  Zn6  1  0.125000  0.875000  0.375000  1.0
  Zn  Zn7  1  0.375000  0.625000  0.375000  1.0
  Zn  Zn8  1  0.625000  0.125000  0.125000  1.0
  Zn  Zn9  1  0.875000  0.375000  0.125000  1.0
  Zn  Zn10  1  0.625000  0.375000  0.375000  1.0
  Zn  Zn11  1  0.875000  0.125000  0.375000  1.0
  Zn  Zn12  1  0.625000  0.625000  0.625000  1.0
  Zn  Zn13  1  0.875000  0.875000  0.625000  1.0
  Zn  Zn14  1  0.625000  0.875000  0.875000  1.0
  Zn  Zn15  1  0.875000  0.625000  0.875000  1.0
  Au  Au16  1  0.500000  0.500000  0.000000  1.0
  Au  Au17  1  0.250000  0.250000  0.250000  1.0
  Au  Au18  1  0.500000  0.000000  0.500000  1.0
  Au  Au19  1  0.250000  0.750000  0.750000  1.0
  Au  Au20  1  0.000000  0.500000  0.500000  1.0
  Au  Au21  1  0.750000  0.250000  0.750000  1.0
  Au  Au22  1  0.000000  0.000000  0.000000  1.0
  Au  Au23  1  0.750000  0.750000  0.250000  1.0
  O  O24  1  0.112160  0.112160  0.387840  1.0
  O  O25  1  0.362160  0.362160  0.862160  1.0
  O  O26  1  0.137840  0.862160  0.137840  1.0
  O  O27  1  0.362160  0.637840  0.137840  1.0
  O  O28  1  0.112160  0.387840  0.112160  1.0
  O  O29  1  0.387840  0.112160  0.112160  1.0
  O  O30  1  0.137840  0.137840  0.862160  1.0
  O  O31  1  0.387840  0.387840  0.387840  1.0
  O  O32  1  0.112160  0.612160  0.887840  1.0
  O  O33  1  0.362160  0.862160  0.362160  1.0
  O  O34  1  0.137840  0.362160  0.637840  1.0
  O  O35  1  0.362160  0.137840  0.637840  1.0
  O  O36  1  0.112160  0.887840  0.612160  1.0
  O  O37  1  0.387840  0.612160  0.612160  1.0
  O  O38  1  0.137840  0.637840  0.362160  1.0
  O  O39  1  0.387840  0.887840  0.887840  1.0
  O  O40  1  0.612160  0.112160  0.887840  1.0
  O  O41  1  0.862160  0.362160  0.362160  1.0
  O  O42  1  0.637840  0.862160  0.637840  1.0
  O  O43  1  0.862160  0.637840  0.637840  1.0
  O  O44  1  0.612160  0.387840  0.612160  1.0
  O  O45  1  0.887840  0.112160  0.612160  1.0
  O  O46  1  0.637840  0.137840  0.362160  1.0
  O  O47  1  0.887840  0.387840  0.887840  1.0
  O  O48  1  0.612160  0.612160  0.387840  1.0
  O  O49  1  0.862160  0.862160  0.862160  1.0
  O  O50  1  0.637840  0.362160  0.137840  1.0
  O  O51  1  0.862160  0.137840  0.137840  1.0
  O  O52  1  0.612160  0.887840  0.112160  1.0
  O  O53  1  0.887840  0.612160  0.112160  1.0
  O  O54  1  0.637840  0.637840  0.862160  1.0
  O  O55  1  0.887840  0.887840  0.387840  1.0
