# generated using pymatgen
data_BaLa2O4
_symmetry_space_group_name_H-M   'P 1'
_cell_length_a   10.54668149
_cell_length_b   10.54668149
_cell_length_c   10.54668149
_cell_angle_alpha   90.00000000
_cell_angle_beta   90.00000000
_cell_angle_gamma   90.00000000
_symmetry_Int_Tables_number   1
_chemical_formula_structural   BaLa2O4
_chemical_formula_sum   'Ba8 La16 O32'
_cell_volume   1173.13364785
_cell_formula_units_Z   8
loop_
 _symmetry_equiv_pos_site_id
 _symmetry_equiv_pos_as_xyz
  1  'x, y, z'
loop_
 _atom_site_type_symbol
 _atom_site_label
 _atom_site_symmetry_multiplicity
 _atom_site_fract_x
 _atom_site_fract_y
 _atom_site_fract_z
 _atom_site_occupancy
  Ba  Ba0  1  0.500000  0.500000  0.000000  1.0
  Ba  Ba1  1  0.250000  0.250000  0.250000  1.0
  Ba  Ba2  1  0.500000  0.000000  0.500000  1.0
  Ba  Ba3  1  0.250000  0.750000  0.750000  1.0
  Ba  Ba4  1  0.000000  0.500000  0.500000  1.0
  Ba  Ba5  1  0.750000  0.250000  0.750000  1.0
  Ba  Ba6  1  0.000000  0.000000  0.000000  1.0
  Ba  Ba7  1  0.750000  0.750000  0.250000  1.0
  La  La8  1  0.375000  0.125000  0.875000  1.0
  La  La9  1  0.125000  0.125000  0.625000  1.0
  La  La10  1  0.375000  0.375000  0.625000  1.0
  La  La11  1  0.125000  0.375000  0.875000  1.0
  La  La12  1  0.375000  0.625000  0.375000  1.0
  La  La13  1  0.125000  0.625000  0.125000  1.0
  La  La14  1  0.375000  0.875000  0.125000  1.0
  La  La15  1  0.125000  0.875000  0.375000  1.0
  La  La16  1  0.875000  0.125000  0.375000  1.0
  La  La17  1  0.625000  0.125000  0.125000  1.0
  La  La18  1  0.875000  0.375000  0.125000  1.0
  La  La19  1  0.625000  0.375000  0.375000  1.0
  La  La20  1  0.875000  0.625000  0.875000  1.0
  La  La21  1  0.625000  0.625000  0.625000  1.0
  La  La22  1  0.875000  0.875000  0.625000  1.0
  La  La23  1  0.625000  0.875000  0.875000  1.0
  O  O24  1  0.356577  0.643423  0.143423  1.0
  O  O25  1  0.143423  0.143423  0.856577  1.0
  O  O26  1  0.356577  0.356577  0.856577  1.0
  O  O27  1  0.106577  0.393423  0.106577  1.0
  O  O28  1  0.143423  0.856577  0.143423  1.0
  O  O29  1  0.393423  0.393423  0.393423  1.0
  O  O30  1  0.106577  0.106577  0.393423  1.0
  O  O31  1  0.393423  0.106577  0.106577  1.0
  O  O32  1  0.356577  0.143423  0.643423  1.0
  O  O33  1  0.143423  0.643423  0.356577  1.0
  O  O34  1  0.356577  0.856577  0.356577  1.0
  O  O35  1  0.106577  0.893423  0.606577  1.0
  O  O36  1  0.143423  0.356577  0.643423  1.0
  O  O37  1  0.393423  0.893423  0.893423  1.0
  O  O38  1  0.106577  0.606577  0.893423  1.0
  O  O39  1  0.393423  0.606577  0.606577  1.0
  O  O40  1  0.856577  0.643423  0.643423  1.0
  O  O41  1  0.643423  0.143423  0.356577  1.0
  O  O42  1  0.856577  0.356577  0.356577  1.0
  O  O43  1  0.606577  0.393423  0.606577  1.0
  O  O44  1  0.643423  0.856577  0.643423  1.0
  O  O45  1  0.893423  0.393423  0.893423  1.0
  O  O46  1  0.606577  0.106577  0.893423  1.0
  O  O47  1  0.893423  0.106577  0.606577  1.0
  O  O48  1  0.856577  0.143423  0.143423  1.0
  O  O49  1  0.643423  0.643423  0.856577  1.0
  O  O50  1  0.856577  0.856577  0.856577  1.0
  O  O51  1  0.606577  0.893423  0.106577  1.0
  O  O52  1  0.643423  0.356577  0.143423  1.0
  O  O53  1  0.893423  0.893423  0.393423  1.0
  O  O54  1  0.606577  0.606577  0.393423  1.0
  O  O55  1  0.893423  0.606577  0.106577  1.0
