# generated using pymatgen
data_Bi(AsO2)2
_symmetry_space_group_name_H-M   'P 1'
_cell_length_a   9.38924668
_cell_length_b   9.38924668
_cell_length_c   9.38924668
_cell_angle_alpha   90.00000000
_cell_angle_beta   90.00000000
_cell_angle_gamma   90.00000000
_symmetry_Int_Tables_number   1
_chemical_formula_structural   Bi(AsO2)2
_chemical_formula_sum   'Bi8 As16 O32'
_cell_volume   827.73677044
_cell_formula_units_Z   8
loop_
 _symmetry_equiv_pos_site_id
 _symmetry_equiv_pos_as_xyz
  1  'x, y, z'
loop_
 _atom_site_type_symbol
 _atom_site_label
 _atom_site_symmetry_multiplicity
 _atom_site_fract_x
 _atom_site_fract_y
 _atom_site_fract_z
 _atom_site_occupancy
  Bi  Bi0  1  0.500000  0.500000  0.000000  1.0
  Bi  Bi1  1  0.250000  0.250000  0.250000  1.0
  Bi  Bi2  1  0.500000  0.000000  0.500000  1.0
  Bi  Bi3  1  0.250000  0.750000  0.750000  1.0
  Bi  Bi4  1  0.000000  0.500000  0.500000  1.0
  Bi  Bi5  1  0.750000  0.250000  0.750000  1.0
  Bi  Bi6  1  0.000000  0.000000  0.000000  1.0
  Bi  Bi7  1  0.750000  0.750000  0.250000  1.0
  As  As8  1  0.125000  0.125000  0.625000  1.0
  As  As9  1  0.375000  0.375000  0.625000  1.0
  As  As10  1  0.125000  0.375000  0.875000  1.0
  As  As11  1  0.375000  0.125000  0.875000  1.0
  As  As12  1  0.125000  0.625000  0.125000  1.0
  As  As13  1  0.375000  0.875000  0.125000  1.0
  As  As14  1  0.125000  0.875000  0.375000  1.0
  As  As15  1  0.375000  0.625000  0.375000  1.0
  As  As16  1  0.625000  0.125000  0.125000  1.0
  As  As17  1  0.875000  0.375000  0.125000  1.0
  As  As18  1  0.625000  0.375000  0.375000  1.0
  As  As19  1  0.875000  0.125000  0.375000  1.0
  As  As20  1  0.625000  0.625000  0.625000  1.0
  As  As21  1  0.875000  0.875000  0.625000  1.0
  As  As22  1  0.625000  0.875000  0.875000  1.0
  As  As23  1  0.875000  0.625000  0.875000  1.0
  O  O24  1  0.109340  0.109340  0.390660  1.0
  O  O25  1  0.359340  0.359340  0.859340  1.0
  O  O26  1  0.140660  0.859340  0.140660  1.0
  O  O27  1  0.359340  0.640660  0.140660  1.0
  O  O28  1  0.109340  0.390660  0.109340  1.0
  O  O29  1  0.390660  0.109340  0.109340  1.0
  O  O30  1  0.140660  0.140660  0.859340  1.0
  O  O31  1  0.390660  0.390660  0.390660  1.0
  O  O32  1  0.109340  0.609340  0.890660  1.0
  O  O33  1  0.359340  0.859340  0.359340  1.0
  O  O34  1  0.140660  0.359340  0.640660  1.0
  O  O35  1  0.359340  0.140660  0.640660  1.0
  O  O36  1  0.109340  0.890660  0.609340  1.0
  O  O37  1  0.390660  0.609340  0.609340  1.0
  O  O38  1  0.140660  0.640660  0.359340  1.0
  O  O39  1  0.390660  0.890660  0.890660  1.0
  O  O40  1  0.609340  0.109340  0.890660  1.0
  O  O41  1  0.859340  0.359340  0.359340  1.0
  O  O42  1  0.640660  0.859340  0.640660  1.0
  O  O43  1  0.859340  0.640660  0.640660  1.0
  O  O44  1  0.609340  0.390660  0.609340  1.0
  O  O45  1  0.890660  0.109340  0.609340  1.0
  O  O46  1  0.640660  0.140660  0.359340  1.0
  O  O47  1  0.890660  0.390660  0.890660  1.0
  O  O48  1  0.609340  0.609340  0.390660  1.0
  O  O49  1  0.859340  0.859340  0.859340  1.0
  O  O50  1  0.640660  0.359340  0.140660  1.0
  O  O51  1  0.859340  0.140660  0.140660  1.0
  O  O52  1  0.609340  0.890660  0.109340  1.0
  O  O53  1  0.890660  0.609340  0.109340  1.0
  O  O54  1  0.640660  0.640660  0.859340  1.0
  O  O55  1  0.890660  0.890660  0.390660  1.0
