# generated using pymatgen
data_Sn2BO4
_symmetry_space_group_name_H-M   'P 1'
_cell_length_a   8.69404758
_cell_length_b   8.69404758
_cell_length_c   8.69404758
_cell_angle_alpha   90.00000000
_cell_angle_beta   90.00000000
_cell_angle_gamma   90.00000000
_symmetry_Int_Tables_number   1
_chemical_formula_structural   Sn2BO4
_chemical_formula_sum   'Sn16 B8 O32'
_cell_volume   657.15230861
_cell_formula_units_Z   8
loop_
 _symmetry_equiv_pos_site_id
 _symmetry_equiv_pos_as_xyz
  1  'x, y, z'
loop_
 _atom_site_type_symbol
 _atom_site_label
 _atom_site_symmetry_multiplicity
 _atom_site_fract_x
 _atom_site_fract_y
 _atom_site_fract_z
 _atom_site_occupancy
  Sn  Sn0  1  0.125000  0.125000  0.625000  1.0
  Sn  Sn1  1  0.375000  0.375000  0.625000  1.0
  Sn  Sn2  1  0.125000  0.375000  0.875000  1.0
  Sn  Sn3  1  0.375000  0.125000  0.875000  1.0
  Sn  Sn4  1  0.125000  0.625000  0.125000  1.0
  Sn  Sn5  1  0.375000  0.875000  0.125000  1.0
  Sn  Sn6  1  0.125000  0.875000  0.375000  1.0
  Sn  Sn7  1  0.375000  0.625000  0.375000  1.0
  Sn  Sn8  1  0.625000  0.125000  0.125000  1.0
  Sn  Sn9  1  0.875000  0.375000  0.125000  1.0
  Sn  Sn10  1  0.625000  0.375000  0.375000  1.0
  Sn  Sn11  1  0.875000  0.125000  0.375000  1.0
  Sn  Sn12  1  0.625000  0.625000  0.625000  1.0
  Sn  Sn13  1  0.875000  0.875000  0.625000  1.0
  Sn  Sn14  1  0.625000  0.875000  0.875000  1.0
  Sn  Sn15  1  0.875000  0.625000  0.875000  1.0
  B  B16  1  0.500000  0.500000  0.000000  1.0
  B  B17  1  0.250000  0.250000  0.250000  1.0
  B  B18  1  0.500000  0.000000  0.500000  1.0
  B  B19  1  0.250000  0.750000  0.750000  1.0
  B  B20  1  0.000000  0.500000  0.500000  1.0
  B  B21  1  0.750000  0.250000  0.750000  1.0
  B  B22  1  0.000000  0.000000  0.000000  1.0
  B  B23  1  0.750000  0.750000  0.250000  1.0
  O  O24  1  0.149377  0.149377  0.350623  1.0
  O  O25  1  0.399377  0.399377  0.899377  1.0
  O  O26  1  0.100623  0.899377  0.100623  1.0
  O  O27  1  0.399377  0.600623  0.100623  1.0
  O  O28  1  0.149377  0.350623  0.149377  1.0
  O  O29  1  0.350623  0.149377  0.149377  1.0
  O  O30  1  0.100623  0.100623  0.899377  1.0
  O  O31  1  0.350623  0.350623  0.350623  1.0
  O  O32  1  0.149377  0.649377  0.850623  1.0
  O  O33  1  0.399377  0.899377  0.399377  1.0
  O  O34  1  0.100623  0.399377  0.600623  1.0
  O  O35  1  0.399377  0.100623  0.600623  1.0
  O  O36  1  0.149377  0.850623  0.649377  1.0
  O  O37  1  0.350623  0.649377  0.649377  1.0
  O  O38  1  0.100623  0.600623  0.399377  1.0
  O  O39  1  0.350623  0.850623  0.850623  1.0
  O  O40  1  0.649377  0.149377  0.850623  1.0
  O  O41  1  0.899377  0.399377  0.399377  1.0
  O  O42  1  0.600623  0.899377  0.600623  1.0
  O  O43  1  0.899377  0.600623  0.600623  1.0
  O  O44  1  0.649377  0.350623  0.649377  1.0
  O  O45  1  0.850623  0.149377  0.649377  1.0
  O  O46  1  0.600623  0.100623  0.399377  1.0
  O  O47  1  0.850623  0.350623  0.850623  1.0
  O  O48  1  0.649377  0.649377  0.350623  1.0
  O  O49  1  0.899377  0.899377  0.899377  1.0
  O  O50  1  0.600623  0.399377  0.100623  1.0
  O  O51  1  0.899377  0.100623  0.100623  1.0
  O  O52  1  0.649377  0.850623  0.149377  1.0
  O  O53  1  0.850623  0.649377  0.149377  1.0
  O  O54  1  0.600623  0.600623  0.899377  1.0
  O  O55  1  0.850623  0.850623  0.350623  1.0
