# generated using pymatgen
data_B(TeO2)2
_symmetry_space_group_name_H-M   'P 1'
_cell_length_a   8.82378753
_cell_length_b   8.82378753
_cell_length_c   8.82378753
_cell_angle_alpha   90.00000000
_cell_angle_beta   90.00000000
_cell_angle_gamma   90.00000000
_symmetry_Int_Tables_number   1
_chemical_formula_structural   B(TeO2)2
_chemical_formula_sum   'B8 Te16 O32'
_cell_volume   687.01327137
_cell_formula_units_Z   8
loop_
 _symmetry_equiv_pos_site_id
 _symmetry_equiv_pos_as_xyz
  1  'x, y, z'
loop_
 _atom_site_type_symbol
 _atom_site_label
 _atom_site_symmetry_multiplicity
 _atom_site_fract_x
 _atom_site_fract_y
 _atom_site_fract_z
 _atom_site_occupancy
  B  B0  1  0.500000  0.500000  0.000000  1.0
  B  B1  1  0.250000  0.250000  0.250000  1.0
  B  B2  1  0.500000  0.000000  0.500000  1.0
  B  B3  1  0.250000  0.750000  0.750000  1.0
  B  B4  1  0.000000  0.500000  0.500000  1.0
  B  B5  1  0.750000  0.250000  0.750000  1.0
  B  B6  1  0.000000  0.000000  0.000000  1.0
  B  B7  1  0.750000  0.750000  0.250000  1.0
  Te  Te8  1  0.125000  0.125000  0.625000  1.0
  Te  Te9  1  0.375000  0.375000  0.625000  1.0
  Te  Te10  1  0.125000  0.375000  0.875000  1.0
  Te  Te11  1  0.375000  0.125000  0.875000  1.0
  Te  Te12  1  0.125000  0.625000  0.125000  1.0
  Te  Te13  1  0.375000  0.875000  0.125000  1.0
  Te  Te14  1  0.125000  0.875000  0.375000  1.0
  Te  Te15  1  0.375000  0.625000  0.375000  1.0
  Te  Te16  1  0.625000  0.125000  0.125000  1.0
  Te  Te17  1  0.875000  0.375000  0.125000  1.0
  Te  Te18  1  0.625000  0.375000  0.375000  1.0
  Te  Te19  1  0.875000  0.125000  0.375000  1.0
  Te  Te20  1  0.625000  0.625000  0.625000  1.0
  Te  Te21  1  0.875000  0.875000  0.625000  1.0
  Te  Te22  1  0.625000  0.875000  0.875000  1.0
  Te  Te23  1  0.875000  0.625000  0.875000  1.0
  O  O24  1  0.152253  0.152253  0.347747  1.0
  O  O25  1  0.402253  0.402253  0.902253  1.0
  O  O26  1  0.097747  0.902253  0.097747  1.0
  O  O27  1  0.402253  0.597747  0.097747  1.0
  O  O28  1  0.152253  0.347747  0.152253  1.0
  O  O29  1  0.347747  0.152253  0.152253  1.0
  O  O30  1  0.097747  0.097747  0.902253  1.0
  O  O31  1  0.347747  0.347747  0.347747  1.0
  O  O32  1  0.152253  0.652253  0.847747  1.0
  O  O33  1  0.402253  0.902253  0.402253  1.0
  O  O34  1  0.097747  0.402253  0.597747  1.0
  O  O35  1  0.402253  0.097747  0.597747  1.0
  O  O36  1  0.152253  0.847747  0.652253  1.0
  O  O37  1  0.347747  0.652253  0.652253  1.0
  O  O38  1  0.097747  0.597747  0.402253  1.0
  O  O39  1  0.347747  0.847747  0.847747  1.0
  O  O40  1  0.652253  0.152253  0.847747  1.0
  O  O41  1  0.902253  0.402253  0.402253  1.0
  O  O42  1  0.597747  0.902253  0.597747  1.0
  O  O43  1  0.902253  0.597747  0.597747  1.0
  O  O44  1  0.652253  0.347747  0.652253  1.0
  O  O45  1  0.847747  0.152253  0.652253  1.0
  O  O46  1  0.597747  0.097747  0.402253  1.0
  O  O47  1  0.847747  0.347747  0.847747  1.0
  O  O48  1  0.652253  0.652253  0.347747  1.0
  O  O49  1  0.902253  0.902253  0.902253  1.0
  O  O50  1  0.597747  0.402253  0.097747  1.0
  O  O51  1  0.902253  0.097747  0.097747  1.0
  O  O52  1  0.652253  0.847747  0.152253  1.0
  O  O53  1  0.847747  0.652253  0.152253  1.0
  O  O54  1  0.597747  0.597747  0.902253  1.0
  O  O55  1  0.847747  0.847747  0.347747  1.0
