# generated using pymatgen
data_CaLu2O4
_symmetry_space_group_name_H-M   'P 1'
_cell_length_a   9.32917089
_cell_length_b   9.32917089
_cell_length_c   9.32917089
_cell_angle_alpha   90.00000000
_cell_angle_beta   90.00000000
_cell_angle_gamma   90.00000000
_symmetry_Int_Tables_number   1
_chemical_formula_structural   CaLu2O4
_chemical_formula_sum   'Ca8 Lu16 O32'
_cell_volume   811.94973721
_cell_formula_units_Z   8
loop_
 _symmetry_equiv_pos_site_id
 _symmetry_equiv_pos_as_xyz
  1  'x, y, z'
loop_
 _atom_site_type_symbol
 _atom_site_label
 _atom_site_symmetry_multiplicity
 _atom_site_fract_x
 _atom_site_fract_y
 _atom_site_fract_z
 _atom_site_occupancy
  Ca  Ca0  1  0.500000  0.500000  0.000000  1.0
  Ca  Ca1  1  0.250000  0.250000  0.250000  1.0
  Ca  Ca2  1  0.500000  0.000000  0.500000  1.0
  Ca  Ca3  1  0.250000  0.750000  0.750000  1.0
  Ca  Ca4  1  0.000000  0.500000  0.500000  1.0
  Ca  Ca5  1  0.750000  0.250000  0.750000  1.0
  Ca  Ca6  1  0.000000  0.000000  0.000000  1.0
  Ca  Ca7  1  0.750000  0.750000  0.250000  1.0
  Lu  Lu8  1  0.125000  0.125000  0.625000  1.0
  Lu  Lu9  1  0.375000  0.375000  0.625000  1.0
  Lu  Lu10  1  0.125000  0.375000  0.875000  1.0
  Lu  Lu11  1  0.375000  0.125000  0.875000  1.0
  Lu  Lu12  1  0.125000  0.625000  0.125000  1.0
  Lu  Lu13  1  0.375000  0.875000  0.125000  1.0
  Lu  Lu14  1  0.125000  0.875000  0.375000  1.0
  Lu  Lu15  1  0.375000  0.625000  0.375000  1.0
  Lu  Lu16  1  0.625000  0.125000  0.125000  1.0
  Lu  Lu17  1  0.875000  0.375000  0.125000  1.0
  Lu  Lu18  1  0.625000  0.375000  0.375000  1.0
  Lu  Lu19  1  0.875000  0.125000  0.375000  1.0
  Lu  Lu20  1  0.625000  0.625000  0.625000  1.0
  Lu  Lu21  1  0.875000  0.875000  0.625000  1.0
  Lu  Lu22  1  0.625000  0.875000  0.875000  1.0
  Lu  Lu23  1  0.875000  0.625000  0.875000  1.0
  O  O24  1  0.111087  0.111087  0.388913  1.0
  O  O25  1  0.361087  0.361087  0.861087  1.0
  O  O26  1  0.138913  0.861087  0.138913  1.0
  O  O27  1  0.361087  0.638913  0.138913  1.0
  O  O28  1  0.111087  0.388913  0.111087  1.0
  O  O29  1  0.388913  0.111087  0.111087  1.0
  O  O30  1  0.138913  0.138913  0.861087  1.0
  O  O31  1  0.388913  0.388913  0.388913  1.0
  O  O32  1  0.111087  0.611087  0.888913  1.0
  O  O33  1  0.361087  0.861087  0.361087  1.0
  O  O34  1  0.138913  0.361087  0.638913  1.0
  O  O35  1  0.361087  0.138913  0.638913  1.0
  O  O36  1  0.111087  0.888913  0.611087  1.0
  O  O37  1  0.388913  0.611087  0.611087  1.0
  O  O38  1  0.138913  0.638913  0.361087  1.0
  O  O39  1  0.388913  0.888913  0.888913  1.0
  O  O40  1  0.611087  0.111087  0.888913  1.0
  O  O41  1  0.861087  0.361087  0.361087  1.0
  O  O42  1  0.638913  0.861087  0.638913  1.0
  O  O43  1  0.861087  0.638913  0.638913  1.0
  O  O44  1  0.611087  0.388913  0.611087  1.0
  O  O45  1  0.888913  0.111087  0.611087  1.0
  O  O46  1  0.638913  0.138913  0.361087  1.0
  O  O47  1  0.888913  0.388913  0.888913  1.0
  O  O48  1  0.611087  0.611087  0.388913  1.0
  O  O49  1  0.861087  0.861087  0.861087  1.0
  O  O50  1  0.638913  0.361087  0.138913  1.0
  O  O51  1  0.861087  0.138913  0.138913  1.0
  O  O52  1  0.611087  0.888913  0.111087  1.0
  O  O53  1  0.888913  0.611087  0.111087  1.0
  O  O54  1  0.638913  0.638913  0.861087  1.0
  O  O55  1  0.888913  0.888913  0.388913  1.0
