# generated using pymatgen
data_V2CdO4
_symmetry_space_group_name_H-M   'P 1'
_cell_length_a   8.72180859
_cell_length_b   8.72180859
_cell_length_c   8.72180859
_cell_angle_alpha   90.00000000
_cell_angle_beta   90.00000000
_cell_angle_gamma   90.00000000
_symmetry_Int_Tables_number   1
_chemical_formula_structural   V2CdO4
_chemical_formula_sum   'V16 Cd8 O32'
_cell_volume   663.46750103
_cell_formula_units_Z   8
loop_
 _symmetry_equiv_pos_site_id
 _symmetry_equiv_pos_as_xyz
  1  'x, y, z'
loop_
 _atom_site_type_symbol
 _atom_site_label
 _atom_site_symmetry_multiplicity
 _atom_site_fract_x
 _atom_site_fract_y
 _atom_site_fract_z
 _atom_site_occupancy
  V  V0  1  0.125000  0.125000  0.625000  1.0
  V  V1  1  0.375000  0.375000  0.625000  1.0
  V  V2  1  0.125000  0.375000  0.875000  1.0
  V  V3  1  0.375000  0.125000  0.875000  1.0
  V  V4  1  0.125000  0.625000  0.125000  1.0
  V  V5  1  0.375000  0.875000  0.125000  1.0
  V  V6  1  0.125000  0.875000  0.375000  1.0
  V  V7  1  0.375000  0.625000  0.375000  1.0
  V  V8  1  0.625000  0.125000  0.125000  1.0
  V  V9  1  0.875000  0.375000  0.125000  1.0
  V  V10  1  0.625000  0.375000  0.375000  1.0
  V  V11  1  0.875000  0.125000  0.375000  1.0
  V  V12  1  0.625000  0.625000  0.625000  1.0
  V  V13  1  0.875000  0.875000  0.625000  1.0
  V  V14  1  0.625000  0.875000  0.875000  1.0
  V  V15  1  0.875000  0.625000  0.875000  1.0
  Cd  Cd16  1  0.500000  0.500000  0.000000  1.0
  Cd  Cd17  1  0.250000  0.250000  0.250000  1.0
  Cd  Cd18  1  0.500000  0.000000  0.500000  1.0
  Cd  Cd19  1  0.250000  0.750000  0.750000  1.0
  Cd  Cd20  1  0.000000  0.500000  0.500000  1.0
  Cd  Cd21  1  0.750000  0.250000  0.750000  1.0
  Cd  Cd22  1  0.000000  0.000000  0.000000  1.0
  Cd  Cd23  1  0.750000  0.750000  0.250000  1.0
  O  O24  1  0.107373  0.107373  0.392627  1.0
  O  O25  1  0.357373  0.357373  0.857373  1.0
  O  O26  1  0.142627  0.857373  0.142627  1.0
  O  O27  1  0.357373  0.642627  0.142627  1.0
  O  O28  1  0.107373  0.392627  0.107373  1.0
  O  O29  1  0.392627  0.107373  0.107373  1.0
  O  O30  1  0.142627  0.142627  0.857373  1.0
  O  O31  1  0.392627  0.392627  0.392627  1.0
  O  O32  1  0.107373  0.607373  0.892627  1.0
  O  O33  1  0.357373  0.857373  0.357373  1.0
  O  O34  1  0.142627  0.357373  0.642627  1.0
  O  O35  1  0.357373  0.142627  0.642627  1.0
  O  O36  1  0.107373  0.892627  0.607373  1.0
  O  O37  1  0.392627  0.607373  0.607373  1.0
  O  O38  1  0.142627  0.642627  0.357373  1.0
  O  O39  1  0.392627  0.892627  0.892627  1.0
  O  O40  1  0.607373  0.107373  0.892627  1.0
  O  O41  1  0.857373  0.357373  0.357373  1.0
  O  O42  1  0.642627  0.857373  0.642627  1.0
  O  O43  1  0.857373  0.642627  0.642627  1.0
  O  O44  1  0.607373  0.392627  0.607373  1.0
  O  O45  1  0.892627  0.107373  0.607373  1.0
  O  O46  1  0.642627  0.142627  0.357373  1.0
  O  O47  1  0.892627  0.392627  0.892627  1.0
  O  O48  1  0.607373  0.607373  0.392627  1.0
  O  O49  1  0.857373  0.857373  0.857373  1.0
  O  O50  1  0.642627  0.357373  0.142627  1.0
  O  O51  1  0.857373  0.142627  0.142627  1.0
  O  O52  1  0.607373  0.892627  0.107373  1.0
  O  O53  1  0.892627  0.607373  0.107373  1.0
  O  O54  1  0.642627  0.642627  0.857373  1.0
  O  O55  1  0.892627  0.892627  0.392627  1.0
