# generated using pymatgen
data_Zn2CdO4
_symmetry_space_group_name_H-M   'P 1'
_cell_length_a   8.82783218
_cell_length_b   8.82783218
_cell_length_c   8.82783218
_cell_angle_alpha   90.00000000
_cell_angle_beta   90.00000000
_cell_angle_gamma   90.00000000
_symmetry_Int_Tables_number   1
_chemical_formula_structural   Zn2CdO4
_chemical_formula_sum   'Zn16 Cd8 O32'
_cell_volume   687.95844463
_cell_formula_units_Z   8
loop_
 _symmetry_equiv_pos_site_id
 _symmetry_equiv_pos_as_xyz
  1  'x, y, z'
loop_
 _atom_site_type_symbol
 _atom_site_label
 _atom_site_symmetry_multiplicity
 _atom_site_fract_x
 _atom_site_fract_y
 _atom_site_fract_z
 _atom_site_occupancy
  Zn  Zn0  1  0.125000  0.125000  0.625000  1.0
  Zn  Zn1  1  0.375000  0.375000  0.625000  1.0
  Zn  Zn2  1  0.125000  0.375000  0.875000  1.0
  Zn  Zn3  1  0.375000  0.125000  0.875000  1.0
  Zn  Zn4  1  0.125000  0.625000  0.125000  1.0
  Zn  Zn5  1  0.375000  0.875000  0.125000  1.0
  Zn  Zn6  1  0.125000  0.875000  0.375000  1.0
  Zn  Zn7  1  0.375000  0.625000  0.375000  1.0
  Zn  Zn8  1  0.625000  0.125000  0.125000  1.0
  Zn  Zn9  1  0.875000  0.375000  0.125000  1.0
  Zn  Zn10  1  0.625000  0.375000  0.375000  1.0
  Zn  Zn11  1  0.875000  0.125000  0.375000  1.0
  Zn  Zn12  1  0.625000  0.625000  0.625000  1.0
  Zn  Zn13  1  0.875000  0.875000  0.625000  1.0
  Zn  Zn14  1  0.625000  0.875000  0.875000  1.0
  Zn  Zn15  1  0.875000  0.625000  0.875000  1.0
  Cd  Cd16  1  0.500000  0.500000  0.000000  1.0
  Cd  Cd17  1  0.250000  0.250000  0.250000  1.0
  Cd  Cd18  1  0.500000  0.000000  0.500000  1.0
  Cd  Cd19  1  0.250000  0.750000  0.750000  1.0
  Cd  Cd20  1  0.000000  0.500000  0.500000  1.0
  Cd  Cd21  1  0.750000  0.250000  0.750000  1.0
  Cd  Cd22  1  0.000000  0.000000  0.000000  1.0
  Cd  Cd23  1  0.750000  0.750000  0.250000  1.0
  O  O24  1  0.108513  0.108513  0.391487  1.0
  O  O25  1  0.358513  0.358513  0.858513  1.0
  O  O26  1  0.141487  0.858513  0.141487  1.0
  O  O27  1  0.358513  0.641487  0.141487  1.0
  O  O28  1  0.108513  0.391487  0.108513  1.0
  O  O29  1  0.391487  0.108513  0.108513  1.0
  O  O30  1  0.141487  0.141487  0.858513  1.0
  O  O31  1  0.391487  0.391487  0.391487  1.0
  O  O32  1  0.108513  0.608513  0.891487  1.0
  O  O33  1  0.358513  0.858513  0.358513  1.0
  O  O34  1  0.141487  0.358513  0.641487  1.0
  O  O35  1  0.358513  0.141487  0.641487  1.0
  O  O36  1  0.108513  0.891487  0.608513  1.0
  O  O37  1  0.391487  0.608513  0.608513  1.0
  O  O38  1  0.141487  0.641487  0.358513  1.0
  O  O39  1  0.391487  0.891487  0.891487  1.0
  O  O40  1  0.608513  0.108513  0.891487  1.0
  O  O41  1  0.858513  0.358513  0.358513  1.0
  O  O42  1  0.641487  0.858513  0.641487  1.0
  O  O43  1  0.858513  0.641487  0.641487  1.0
  O  O44  1  0.608513  0.391487  0.608513  1.0
  O  O45  1  0.891487  0.108513  0.608513  1.0
  O  O46  1  0.641487  0.141487  0.358513  1.0
  O  O47  1  0.891487  0.391487  0.891487  1.0
  O  O48  1  0.608513  0.608513  0.391487  1.0
  O  O49  1  0.858513  0.858513  0.858513  1.0
  O  O50  1  0.641487  0.358513  0.141487  1.0
  O  O51  1  0.858513  0.141487  0.141487  1.0
  O  O52  1  0.608513  0.891487  0.108513  1.0
  O  O53  1  0.891487  0.608513  0.108513  1.0
  O  O54  1  0.641487  0.641487  0.858513  1.0
  O  O55  1  0.891487  0.891487  0.391487  1.0
