# generated using pymatgen
data_Tb2CoO4
_symmetry_space_group_name_H-M   'P 1'
_cell_length_a   9.26370695
_cell_length_b   9.26370695
_cell_length_c   9.26370695
_cell_angle_alpha   90.00000000
_cell_angle_beta   90.00000000
_cell_angle_gamma   90.00000000
_symmetry_Int_Tables_number   1
_chemical_formula_structural   Tb2CoO4
_chemical_formula_sum   'Tb16 Co8 O32'
_cell_volume   794.97674280
_cell_formula_units_Z   8
loop_
 _symmetry_equiv_pos_site_id
 _symmetry_equiv_pos_as_xyz
  1  'x, y, z'
loop_
 _atom_site_type_symbol
 _atom_site_label
 _atom_site_symmetry_multiplicity
 _atom_site_fract_x
 _atom_site_fract_y
 _atom_site_fract_z
 _atom_site_occupancy
  Tb  Tb0  1  0.125000  0.125000  0.625000  1.0
  Tb  Tb1  1  0.375000  0.375000  0.625000  1.0
  Tb  Tb2  1  0.125000  0.375000  0.875000  1.0
  Tb  Tb3  1  0.375000  0.125000  0.875000  1.0
  Tb  Tb4  1  0.125000  0.625000  0.125000  1.0
  Tb  Tb5  1  0.375000  0.875000  0.125000  1.0
  Tb  Tb6  1  0.125000  0.875000  0.375000  1.0
  Tb  Tb7  1  0.375000  0.625000  0.375000  1.0
  Tb  Tb8  1  0.625000  0.125000  0.125000  1.0
  Tb  Tb9  1  0.875000  0.375000  0.125000  1.0
  Tb  Tb10  1  0.625000  0.375000  0.375000  1.0
  Tb  Tb11  1  0.875000  0.125000  0.375000  1.0
  Tb  Tb12  1  0.625000  0.625000  0.625000  1.0
  Tb  Tb13  1  0.875000  0.875000  0.625000  1.0
  Tb  Tb14  1  0.625000  0.875000  0.875000  1.0
  Tb  Tb15  1  0.875000  0.625000  0.875000  1.0
  Co  Co16  1  0.500000  0.500000  0.000000  1.0
  Co  Co17  1  0.250000  0.250000  0.250000  1.0
  Co  Co18  1  0.500000  0.000000  0.500000  1.0
  Co  Co19  1  0.250000  0.750000  0.750000  1.0
  Co  Co20  1  0.000000  0.500000  0.500000  1.0
  Co  Co21  1  0.750000  0.250000  0.750000  1.0
  Co  Co22  1  0.000000  0.000000  0.000000  1.0
  Co  Co23  1  0.750000  0.750000  0.250000  1.0
  O  O24  1  0.121050  0.121050  0.378950  1.0
  O  O25  1  0.371050  0.371050  0.871050  1.0
  O  O26  1  0.128950  0.871050  0.128950  1.0
  O  O27  1  0.371050  0.628950  0.128950  1.0
  O  O28  1  0.121050  0.378950  0.121050  1.0
  O  O29  1  0.378950  0.121050  0.121050  1.0
  O  O30  1  0.128950  0.128950  0.871050  1.0
  O  O31  1  0.378950  0.378950  0.378950  1.0
  O  O32  1  0.121050  0.621050  0.878950  1.0
  O  O33  1  0.371050  0.871050  0.371050  1.0
  O  O34  1  0.128950  0.371050  0.628950  1.0
  O  O35  1  0.371050  0.128950  0.628950  1.0
  O  O36  1  0.121050  0.878950  0.621050  1.0
  O  O37  1  0.378950  0.621050  0.621050  1.0
  O  O38  1  0.128950  0.628950  0.371050  1.0
  O  O39  1  0.378950  0.878950  0.878950  1.0
  O  O40  1  0.621050  0.121050  0.878950  1.0
  O  O41  1  0.871050  0.371050  0.371050  1.0
  O  O42  1  0.628950  0.871050  0.628950  1.0
  O  O43  1  0.871050  0.628950  0.628950  1.0
  O  O44  1  0.621050  0.378950  0.621050  1.0
  O  O45  1  0.878950  0.121050  0.621050  1.0
  O  O46  1  0.628950  0.128950  0.371050  1.0
  O  O47  1  0.878950  0.378950  0.878950  1.0
  O  O48  1  0.621050  0.621050  0.378950  1.0
  O  O49  1  0.871050  0.871050  0.871050  1.0
  O  O50  1  0.628950  0.371050  0.128950  1.0
  O  O51  1  0.871050  0.128950  0.128950  1.0
  O  O52  1  0.621050  0.878950  0.121050  1.0
  O  O53  1  0.878950  0.621050  0.121050  1.0
  O  O54  1  0.628950  0.628950  0.871050  1.0
  O  O55  1  0.878950  0.878950  0.378950  1.0
