# generated using pymatgen
data_Ta2CrO4
_symmetry_space_group_name_H-M   'P 1'
_cell_length_a   8.64080244
_cell_length_b   8.64080244
_cell_length_c   8.64080244
_cell_angle_alpha   90.00000000
_cell_angle_beta   90.00000000
_cell_angle_gamma   90.00000000
_symmetry_Int_Tables_number   1
_chemical_formula_structural   Ta2CrO4
_chemical_formula_sum   'Ta16 Cr8 O32'
_cell_volume   645.15226610
_cell_formula_units_Z   8
loop_
 _symmetry_equiv_pos_site_id
 _symmetry_equiv_pos_as_xyz
  1  'x, y, z'
loop_
 _atom_site_type_symbol
 _atom_site_label
 _atom_site_symmetry_multiplicity
 _atom_site_fract_x
 _atom_site_fract_y
 _atom_site_fract_z
 _atom_site_occupancy
  Ta  Ta0  1  0.125000  0.125000  0.625000  1.0
  Ta  Ta1  1  0.375000  0.375000  0.625000  1.0
  Ta  Ta2  1  0.125000  0.375000  0.875000  1.0
  Ta  Ta3  1  0.375000  0.125000  0.875000  1.0
  Ta  Ta4  1  0.125000  0.625000  0.125000  1.0
  Ta  Ta5  1  0.375000  0.875000  0.125000  1.0
  Ta  Ta6  1  0.125000  0.875000  0.375000  1.0
  Ta  Ta7  1  0.375000  0.625000  0.375000  1.0
  Ta  Ta8  1  0.625000  0.125000  0.125000  1.0
  Ta  Ta9  1  0.875000  0.375000  0.125000  1.0
  Ta  Ta10  1  0.625000  0.375000  0.375000  1.0
  Ta  Ta11  1  0.875000  0.125000  0.375000  1.0
  Ta  Ta12  1  0.625000  0.625000  0.625000  1.0
  Ta  Ta13  1  0.875000  0.875000  0.625000  1.0
  Ta  Ta14  1  0.625000  0.875000  0.875000  1.0
  Ta  Ta15  1  0.875000  0.625000  0.875000  1.0
  Cr  Cr16  1  0.500000  0.500000  0.000000  1.0
  Cr  Cr17  1  0.250000  0.250000  0.250000  1.0
  Cr  Cr18  1  0.500000  0.000000  0.500000  1.0
  Cr  Cr19  1  0.250000  0.750000  0.750000  1.0
  Cr  Cr20  1  0.000000  0.500000  0.500000  1.0
  Cr  Cr21  1  0.750000  0.250000  0.750000  1.0
  Cr  Cr22  1  0.000000  0.000000  0.000000  1.0
  Cr  Cr23  1  0.750000  0.750000  0.250000  1.0
  O  O24  1  0.126613  0.126613  0.373387  1.0
  O  O25  1  0.376613  0.376613  0.876613  1.0
  O  O26  1  0.123387  0.876613  0.123387  1.0
  O  O27  1  0.376613  0.623387  0.123387  1.0
  O  O28  1  0.126613  0.373387  0.126613  1.0
  O  O29  1  0.373387  0.126613  0.126613  1.0
  O  O30  1  0.123387  0.123387  0.876613  1.0
  O  O31  1  0.373387  0.373387  0.373387  1.0
  O  O32  1  0.126613  0.626613  0.873387  1.0
  O  O33  1  0.376613  0.876613  0.376613  1.0
  O  O34  1  0.123387  0.376613  0.623387  1.0
  O  O35  1  0.376613  0.123387  0.623387  1.0
  O  O36  1  0.126613  0.873387  0.626613  1.0
  O  O37  1  0.373387  0.626613  0.626613  1.0
  O  O38  1  0.123387  0.623387  0.376613  1.0
  O  O39  1  0.373387  0.873387  0.873387  1.0
  O  O40  1  0.626613  0.126613  0.873387  1.0
  O  O41  1  0.876613  0.376613  0.376613  1.0
  O  O42  1  0.623387  0.876613  0.623387  1.0
  O  O43  1  0.876613  0.623387  0.623387  1.0
  O  O44  1  0.626613  0.373387  0.626613  1.0
  O  O45  1  0.873387  0.126613  0.626613  1.0
  O  O46  1  0.623387  0.123387  0.376613  1.0
  O  O47  1  0.873387  0.373387  0.873387  1.0
  O  O48  1  0.626613  0.626613  0.373387  1.0
  O  O49  1  0.876613  0.876613  0.876613  1.0
  O  O50  1  0.623387  0.376613  0.123387  1.0
  O  O51  1  0.876613  0.123387  0.123387  1.0
  O  O52  1  0.626613  0.873387  0.126613  1.0
  O  O53  1  0.873387  0.626613  0.126613  1.0
  O  O54  1  0.623387  0.623387  0.876613  1.0
  O  O55  1  0.873387  0.873387  0.373387  1.0
