# generated using pymatgen
data_Tl2CrO4
_symmetry_space_group_name_H-M   'P 1'
_cell_length_a   9.97419370
_cell_length_b   9.97419370
_cell_length_c   9.97419370
_cell_angle_alpha   90.00000000
_cell_angle_beta   90.00000000
_cell_angle_gamma   90.00000000
_symmetry_Int_Tables_number   1
_chemical_formula_structural   Tl2CrO4
_chemical_formula_sum   'Tl16 Cr8 O32'
_cell_volume   992.27807087
_cell_formula_units_Z   8
loop_
 _symmetry_equiv_pos_site_id
 _symmetry_equiv_pos_as_xyz
  1  'x, y, z'
loop_
 _atom_site_type_symbol
 _atom_site_label
 _atom_site_symmetry_multiplicity
 _atom_site_fract_x
 _atom_site_fract_y
 _atom_site_fract_z
 _atom_site_occupancy
  Tl  Tl0  1  0.125000  0.125000  0.625000  1.0
  Tl  Tl1  1  0.375000  0.375000  0.625000  1.0
  Tl  Tl2  1  0.125000  0.375000  0.875000  1.0
  Tl  Tl3  1  0.375000  0.125000  0.875000  1.0
  Tl  Tl4  1  0.125000  0.625000  0.125000  1.0
  Tl  Tl5  1  0.375000  0.875000  0.125000  1.0
  Tl  Tl6  1  0.125000  0.875000  0.375000  1.0
  Tl  Tl7  1  0.375000  0.625000  0.375000  1.0
  Tl  Tl8  1  0.625000  0.125000  0.125000  1.0
  Tl  Tl9  1  0.875000  0.375000  0.125000  1.0
  Tl  Tl10  1  0.625000  0.375000  0.375000  1.0
  Tl  Tl11  1  0.875000  0.125000  0.375000  1.0
  Tl  Tl12  1  0.625000  0.625000  0.625000  1.0
  Tl  Tl13  1  0.875000  0.875000  0.625000  1.0
  Tl  Tl14  1  0.625000  0.875000  0.875000  1.0
  Tl  Tl15  1  0.875000  0.625000  0.875000  1.0
  Cr  Cr16  1  0.500000  0.500000  0.000000  1.0
  Cr  Cr17  1  0.250000  0.250000  0.250000  1.0
  Cr  Cr18  1  0.500000  0.000000  0.500000  1.0
  Cr  Cr19  1  0.250000  0.750000  0.750000  1.0
  Cr  Cr20  1  0.000000  0.500000  0.500000  1.0
  Cr  Cr21  1  0.750000  0.250000  0.750000  1.0
  Cr  Cr22  1  0.000000  0.000000  0.000000  1.0
  Cr  Cr23  1  0.750000  0.750000  0.250000  1.0
  O  O24  1  0.153537  0.153537  0.346463  1.0
  O  O25  1  0.403537  0.403537  0.903537  1.0
  O  O26  1  0.096463  0.903537  0.096463  1.0
  O  O27  1  0.403537  0.596463  0.096463  1.0
  O  O28  1  0.153537  0.346463  0.153537  1.0
  O  O29  1  0.346463  0.153537  0.153537  1.0
  O  O30  1  0.096463  0.096463  0.903537  1.0
  O  O31  1  0.346463  0.346463  0.346463  1.0
  O  O32  1  0.153537  0.653537  0.846463  1.0
  O  O33  1  0.403537  0.903537  0.403537  1.0
  O  O34  1  0.096463  0.403537  0.596463  1.0
  O  O35  1  0.403537  0.096463  0.596463  1.0
  O  O36  1  0.153537  0.846463  0.653537  1.0
  O  O37  1  0.346463  0.653537  0.653537  1.0
  O  O38  1  0.096463  0.596463  0.403537  1.0
  O  O39  1  0.346463  0.846463  0.846463  1.0
  O  O40  1  0.653537  0.153537  0.846463  1.0
  O  O41  1  0.903537  0.403537  0.403537  1.0
  O  O42  1  0.596463  0.903537  0.596463  1.0
  O  O43  1  0.903537  0.596463  0.596463  1.0
  O  O44  1  0.653537  0.346463  0.653537  1.0
  O  O45  1  0.846463  0.153537  0.653537  1.0
  O  O46  1  0.596463  0.096463  0.403537  1.0
  O  O47  1  0.846463  0.346463  0.846463  1.0
  O  O48  1  0.653537  0.653537  0.346463  1.0
  O  O49  1  0.903537  0.903537  0.903537  1.0
  O  O50  1  0.596463  0.403537  0.096463  1.0
  O  O51  1  0.903537  0.096463  0.096463  1.0
  O  O52  1  0.653537  0.846463  0.153537  1.0
  O  O53  1  0.846463  0.653537  0.153537  1.0
  O  O54  1  0.596463  0.596463  0.903537  1.0
  O  O55  1  0.846463  0.846463  0.346463  1.0
