# generated using pymatgen
data_CsNa2O4
_symmetry_space_group_name_H-M   'P 1'
_cell_length_a   9.37974317
_cell_length_b   9.37974317
_cell_length_c   9.37974317
_cell_angle_alpha   90.00000000
_cell_angle_beta   90.00000000
_cell_angle_gamma   90.00000000
_symmetry_Int_Tables_number   1
_chemical_formula_structural   CsNa2O4
_chemical_formula_sum   'Cs8 Na16 O32'
_cell_volume   825.22588227
_cell_formula_units_Z   8
loop_
 _symmetry_equiv_pos_site_id
 _symmetry_equiv_pos_as_xyz
  1  'x, y, z'
loop_
 _atom_site_type_symbol
 _atom_site_label
 _atom_site_symmetry_multiplicity
 _atom_site_fract_x
 _atom_site_fract_y
 _atom_site_fract_z
 _atom_site_occupancy
  Cs  Cs0  1  0.500000  0.500000  0.000000  1.0
  Cs  Cs1  1  0.250000  0.250000  0.250000  1.0
  Cs  Cs2  1  0.500000  0.000000  0.500000  1.0
  Cs  Cs3  1  0.250000  0.750000  0.750000  1.0
  Cs  Cs4  1  0.000000  0.500000  0.500000  1.0
  Cs  Cs5  1  0.750000  0.250000  0.750000  1.0
  Cs  Cs6  1  0.000000  0.000000  0.000000  1.0
  Cs  Cs7  1  0.750000  0.750000  0.250000  1.0
  Na  Na8  1  0.125000  0.125000  0.625000  1.0
  Na  Na9  1  0.375000  0.375000  0.625000  1.0
  Na  Na10  1  0.125000  0.375000  0.875000  1.0
  Na  Na11  1  0.375000  0.125000  0.875000  1.0
  Na  Na12  1  0.125000  0.625000  0.125000  1.0
  Na  Na13  1  0.375000  0.875000  0.125000  1.0
  Na  Na14  1  0.125000  0.875000  0.375000  1.0
  Na  Na15  1  0.375000  0.625000  0.375000  1.0
  Na  Na16  1  0.625000  0.125000  0.125000  1.0
  Na  Na17  1  0.875000  0.375000  0.125000  1.0
  Na  Na18  1  0.625000  0.375000  0.375000  1.0
  Na  Na19  1  0.875000  0.125000  0.375000  1.0
  Na  Na20  1  0.625000  0.625000  0.625000  1.0
  Na  Na21  1  0.875000  0.875000  0.625000  1.0
  Na  Na22  1  0.625000  0.875000  0.875000  1.0
  Na  Na23  1  0.875000  0.625000  0.875000  1.0
  O  O24  1  0.120423  0.120423  0.379577  1.0
  O  O25  1  0.370423  0.370423  0.870423  1.0
  O  O26  1  0.129577  0.870423  0.129577  1.0
  O  O27  1  0.370423  0.629577  0.129577  1.0
  O  O28  1  0.120423  0.379577  0.120423  1.0
  O  O29  1  0.379577  0.120423  0.120423  1.0
  O  O30  1  0.129577  0.129577  0.870423  1.0
  O  O31  1  0.379577  0.379577  0.379577  1.0
  O  O32  1  0.120423  0.620423  0.879577  1.0
  O  O33  1  0.370423  0.870423  0.370423  1.0
  O  O34  1  0.129577  0.370423  0.629577  1.0
  O  O35  1  0.370423  0.129577  0.629577  1.0
  O  O36  1  0.120423  0.879577  0.620423  1.0
  O  O37  1  0.379577  0.620423  0.620423  1.0
  O  O38  1  0.129577  0.629577  0.370423  1.0
  O  O39  1  0.379577  0.879577  0.879577  1.0
  O  O40  1  0.620423  0.120423  0.879577  1.0
  O  O41  1  0.870423  0.370423  0.370423  1.0
  O  O42  1  0.629577  0.870423  0.629577  1.0
  O  O43  1  0.870423  0.629577  0.629577  1.0
  O  O44  1  0.620423  0.379577  0.620423  1.0
  O  O45  1  0.879577  0.120423  0.620423  1.0
  O  O46  1  0.629577  0.129577  0.370423  1.0
  O  O47  1  0.879577  0.379577  0.879577  1.0
  O  O48  1  0.620423  0.620423  0.379577  1.0
  O  O49  1  0.870423  0.870423  0.870423  1.0
  O  O50  1  0.629577  0.370423  0.129577  1.0
  O  O51  1  0.870423  0.129577  0.129577  1.0
  O  O52  1  0.620423  0.879577  0.120423  1.0
  O  O53  1  0.879577  0.620423  0.120423  1.0
  O  O54  1  0.629577  0.629577  0.870423  1.0
  O  O55  1  0.879577  0.879577  0.379577  1.0
