# generated using pymatgen
data_Yb2CuO4
_symmetry_space_group_name_H-M   'P 1'
_cell_length_a   8.99190924
_cell_length_b   8.99190924
_cell_length_c   8.99190924
_cell_angle_alpha   90.00000000
_cell_angle_beta   90.00000000
_cell_angle_gamma   90.00000000
_symmetry_Int_Tables_number   1
_chemical_formula_structural   Yb2CuO4
_chemical_formula_sum   'Yb16 Cu8 O32'
_cell_volume   727.03571242
_cell_formula_units_Z   8
loop_
 _symmetry_equiv_pos_site_id
 _symmetry_equiv_pos_as_xyz
  1  'x, y, z'
loop_
 _atom_site_type_symbol
 _atom_site_label
 _atom_site_symmetry_multiplicity
 _atom_site_fract_x
 _atom_site_fract_y
 _atom_site_fract_z
 _atom_site_occupancy
  Yb  Yb0  1  0.125000  0.125000  0.625000  1.0
  Yb  Yb1  1  0.375000  0.375000  0.625000  1.0
  Yb  Yb2  1  0.125000  0.375000  0.875000  1.0
  Yb  Yb3  1  0.375000  0.125000  0.875000  1.0
  Yb  Yb4  1  0.125000  0.625000  0.125000  1.0
  Yb  Yb5  1  0.375000  0.875000  0.125000  1.0
  Yb  Yb6  1  0.125000  0.875000  0.375000  1.0
  Yb  Yb7  1  0.375000  0.625000  0.375000  1.0
  Yb  Yb8  1  0.625000  0.125000  0.125000  1.0
  Yb  Yb9  1  0.875000  0.375000  0.125000  1.0
  Yb  Yb10  1  0.625000  0.375000  0.375000  1.0
  Yb  Yb11  1  0.875000  0.125000  0.375000  1.0
  Yb  Yb12  1  0.625000  0.625000  0.625000  1.0
  Yb  Yb13  1  0.875000  0.875000  0.625000  1.0
  Yb  Yb14  1  0.625000  0.875000  0.875000  1.0
  Yb  Yb15  1  0.875000  0.625000  0.875000  1.0
  Cu  Cu16  1  0.500000  0.500000  0.000000  1.0
  Cu  Cu17  1  0.250000  0.250000  0.250000  1.0
  Cu  Cu18  1  0.500000  0.000000  0.500000  1.0
  Cu  Cu19  1  0.250000  0.750000  0.750000  1.0
  Cu  Cu20  1  0.000000  0.500000  0.500000  1.0
  Cu  Cu21  1  0.750000  0.250000  0.750000  1.0
  Cu  Cu22  1  0.000000  0.000000  0.000000  1.0
  Cu  Cu23  1  0.750000  0.750000  0.250000  1.0
  O  O24  1  0.128120  0.128120  0.371880  1.0
  O  O25  1  0.378120  0.378120  0.878120  1.0
  O  O26  1  0.121880  0.878120  0.121880  1.0
  O  O27  1  0.378120  0.621880  0.121880  1.0
  O  O28  1  0.128120  0.371880  0.128120  1.0
  O  O29  1  0.371880  0.128120  0.128120  1.0
  O  O30  1  0.121880  0.121880  0.878120  1.0
  O  O31  1  0.371880  0.371880  0.371880  1.0
  O  O32  1  0.128120  0.628120  0.871880  1.0
  O  O33  1  0.378120  0.878120  0.378120  1.0
  O  O34  1  0.121880  0.378120  0.621880  1.0
  O  O35  1  0.378120  0.121880  0.621880  1.0
  O  O36  1  0.128120  0.871880  0.628120  1.0
  O  O37  1  0.371880  0.628120  0.628120  1.0
  O  O38  1  0.121880  0.621880  0.378120  1.0
  O  O39  1  0.371880  0.871880  0.871880  1.0
  O  O40  1  0.628120  0.128120  0.871880  1.0
  O  O41  1  0.878120  0.378120  0.378120  1.0
  O  O42  1  0.621880  0.878120  0.621880  1.0
  O  O43  1  0.878120  0.621880  0.621880  1.0
  O  O44  1  0.628120  0.371880  0.628120  1.0
  O  O45  1  0.871880  0.128120  0.628120  1.0
  O  O46  1  0.621880  0.121880  0.378120  1.0
  O  O47  1  0.871880  0.371880  0.871880  1.0
  O  O48  1  0.628120  0.628120  0.371880  1.0
  O  O49  1  0.878120  0.878120  0.878120  1.0
  O  O50  1  0.621880  0.378120  0.121880  1.0
  O  O51  1  0.878120  0.121880  0.121880  1.0
  O  O52  1  0.628120  0.871880  0.128120  1.0
  O  O53  1  0.871880  0.628120  0.128120  1.0
  O  O54  1  0.621880  0.621880  0.878120  1.0
  O  O55  1  0.871880  0.871880  0.371880  1.0
