# generated using pymatgen
data_Dy(SiO2)2
_symmetry_space_group_name_H-M   'P 1'
_cell_length_a   9.07155775
_cell_length_b   9.07155775
_cell_length_c   9.07155775
_cell_angle_alpha   90.00000000
_cell_angle_beta   90.00000000
_cell_angle_gamma   90.00000000
_symmetry_Int_Tables_number   1
_chemical_formula_structural   Dy(SiO2)2
_chemical_formula_sum   'Dy8 Si16 O32'
_cell_volume   746.52715314
_cell_formula_units_Z   8
loop_
 _symmetry_equiv_pos_site_id
 _symmetry_equiv_pos_as_xyz
  1  'x, y, z'
loop_
 _atom_site_type_symbol
 _atom_site_label
 _atom_site_symmetry_multiplicity
 _atom_site_fract_x
 _atom_site_fract_y
 _atom_site_fract_z
 _atom_site_occupancy
  Dy  Dy1  1  0.250000  0.250000  0.250000  1.0
  Dy  Dy2  1  0.500000  0.500000  0.000000  1.0
  Dy  Dy3  1  0.250000  0.750000  0.750000  1.0
  Dy  Dy4  1  0.500000  0.000000  0.500000  1.0
  Dy  Dy5  1  0.750000  0.250000  0.750000  1.0
  Dy  Dy6  1  0.000000  0.500000  0.500000  1.0
  Dy  Dy7  1  0.750000  0.750000  0.250000  1.0
  Dy  Dy8  1  0.000000  0.000000  0.000000  1.0
  Si  Si9  1  0.375000  0.375000  0.625000  1.0
  Si  Si10  1  0.375000  0.125000  0.875000  1.0
  Si  Si11  1  0.125000  0.125000  0.625000  1.0
  Si  Si12  1  0.125000  0.375000  0.875000  1.0
  Si  Si13  1  0.375000  0.875000  0.125000  1.0
  Si  Si14  1  0.375000  0.625000  0.375000  1.0
  Si  Si15  1  0.125000  0.625000  0.125000  1.0
  Si  Si16  1  0.125000  0.875000  0.375000  1.0
  Si  Si17  1  0.875000  0.375000  0.125000  1.0
  Si  Si18  1  0.875000  0.125000  0.375000  1.0
  Si  Si19  1  0.625000  0.125000  0.125000  1.0
  Si  Si20  1  0.625000  0.375000  0.375000  1.0
  Si  Si21  1  0.875000  0.875000  0.625000  1.0
  Si  Si22  1  0.875000  0.625000  0.875000  1.0
  Si  Si23  1  0.625000  0.625000  0.625000  1.0
  Si  Si24  1  0.625000  0.875000  0.875000  1.0
  O  O25  1  0.361250  0.361250  0.861250  1.0
  O  O26  1  0.361250  0.638750  0.138750  1.0
  O  O27  1  0.138750  0.138750  0.861250  1.0
  O  O28  1  0.138750  0.861250  0.138750  1.0
  O  O29  1  0.388750  0.111250  0.111250  1.0
  O  O30  1  0.388750  0.388750  0.388750  1.0
  O  O31  1  0.111250  0.111250  0.388750  1.0
  O  O32  1  0.111250  0.388750  0.111250  1.0
  O  O33  1  0.361250  0.861250  0.361250  1.0
  O  O34  1  0.361250  0.138750  0.638750  1.0
  O  O35  1  0.138750  0.638750  0.361250  1.0
  O  O36  1  0.138750  0.361250  0.638750  1.0
  O  O37  1  0.388750  0.611250  0.611250  1.0
  O  O38  1  0.388750  0.888750  0.888750  1.0
  O  O39  1  0.111250  0.611250  0.888750  1.0
  O  O40  1  0.111250  0.888750  0.611250  1.0
  O  O41  1  0.861250  0.361250  0.361250  1.0
  O  O42  1  0.861250  0.638750  0.638750  1.0
  O  O43  1  0.638750  0.138750  0.361250  1.0
  O  O44  1  0.638750  0.861250  0.638750  1.0
  O  O45  1  0.888750  0.111250  0.611250  1.0
  O  O46  1  0.888750  0.388750  0.888750  1.0
  O  O47  1  0.611250  0.111250  0.888750  1.0
  O  O48  1  0.611250  0.388750  0.611250  1.0
  O  O49  1  0.861250  0.861250  0.861250  1.0
  O  O50  1  0.861250  0.138750  0.138750  1.0
  O  O51  1  0.638750  0.638750  0.861250  1.0
  O  O52  1  0.638750  0.361250  0.138750  1.0
  O  O53  1  0.888750  0.611250  0.111250  1.0
  O  O54  1  0.888750  0.888750  0.388750  1.0
  O  O55  1  0.611250  0.611250  0.388750  1.0
  O  O56  1  0.611250  0.888750  0.111250  1.0
