# generated using pymatgen
data_DyY2O4
_symmetry_space_group_name_H-M   'P 1'
_cell_length_a   9.59388339
_cell_length_b   9.59388339
_cell_length_c   9.59388339
_cell_angle_alpha   90.00000000
_cell_angle_beta   90.00000000
_cell_angle_gamma   90.00000000
_symmetry_Int_Tables_number   1
_chemical_formula_structural   DyY2O4
_chemical_formula_sum   'Dy8 Y16 O32'
_cell_volume   883.04595577
_cell_formula_units_Z   8
loop_
 _symmetry_equiv_pos_site_id
 _symmetry_equiv_pos_as_xyz
  1  'x, y, z'
loop_
 _atom_site_type_symbol
 _atom_site_label
 _atom_site_symmetry_multiplicity
 _atom_site_fract_x
 _atom_site_fract_y
 _atom_site_fract_z
 _atom_site_occupancy
  Dy  Dy1  1  0.250000  0.250000  0.250000  1.0
  Dy  Dy2  1  0.500000  0.500000  0.000000  1.0
  Dy  Dy3  1  0.250000  0.750000  0.750000  1.0
  Dy  Dy4  1  0.500000  0.000000  0.500000  1.0
  Dy  Dy5  1  0.750000  0.250000  0.750000  1.0
  Dy  Dy6  1  0.000000  0.500000  0.500000  1.0
  Dy  Dy7  1  0.750000  0.750000  0.250000  1.0
  Dy  Dy8  1  0.000000  0.000000  0.000000  1.0
  Y  Y9  1  0.375000  0.375000  0.625000  1.0
  Y  Y10  1  0.375000  0.125000  0.875000  1.0
  Y  Y11  1  0.125000  0.125000  0.625000  1.0
  Y  Y12  1  0.125000  0.375000  0.875000  1.0
  Y  Y13  1  0.375000  0.875000  0.125000  1.0
  Y  Y14  1  0.375000  0.625000  0.375000  1.0
  Y  Y15  1  0.125000  0.625000  0.125000  1.0
  Y  Y16  1  0.125000  0.875000  0.375000  1.0
  Y  Y17  1  0.875000  0.375000  0.125000  1.0
  Y  Y18  1  0.875000  0.125000  0.375000  1.0
  Y  Y19  1  0.625000  0.125000  0.125000  1.0
  Y  Y20  1  0.625000  0.375000  0.375000  1.0
  Y  Y21  1  0.875000  0.875000  0.625000  1.0
  Y  Y22  1  0.875000  0.625000  0.875000  1.0
  Y  Y23  1  0.625000  0.625000  0.625000  1.0
  Y  Y24  1  0.625000  0.875000  0.875000  1.0
  O  O25  1  0.367180  0.367180  0.867180  1.0
  O  O26  1  0.367180  0.632820  0.132820  1.0
  O  O27  1  0.132820  0.132820  0.867180  1.0
  O  O28  1  0.132820  0.867180  0.132820  1.0
  O  O29  1  0.382820  0.117180  0.117180  1.0
  O  O30  1  0.382820  0.382820  0.382820  1.0
  O  O31  1  0.117180  0.117180  0.382820  1.0
  O  O32  1  0.117180  0.382820  0.117180  1.0
  O  O33  1  0.367180  0.867180  0.367180  1.0
  O  O34  1  0.367180  0.132820  0.632820  1.0
  O  O35  1  0.132820  0.632820  0.367180  1.0
  O  O36  1  0.132820  0.367180  0.632820  1.0
  O  O37  1  0.382820  0.617180  0.617180  1.0
  O  O38  1  0.382820  0.882820  0.882820  1.0
  O  O39  1  0.117180  0.617180  0.882820  1.0
  O  O40  1  0.117180  0.882820  0.617180  1.0
  O  O41  1  0.867180  0.367180  0.367180  1.0
  O  O42  1  0.867180  0.632820  0.632820  1.0
  O  O43  1  0.632820  0.132820  0.367180  1.0
  O  O44  1  0.632820  0.867180  0.632820  1.0
  O  O45  1  0.882820  0.117180  0.617180  1.0
  O  O46  1  0.882820  0.382820  0.882820  1.0
  O  O47  1  0.617180  0.117180  0.882820  1.0
  O  O48  1  0.617180  0.382820  0.617180  1.0
  O  O49  1  0.867180  0.867180  0.867180  1.0
  O  O50  1  0.867180  0.132820  0.132820  1.0
  O  O51  1  0.632820  0.632820  0.867180  1.0
  O  O52  1  0.632820  0.367180  0.132820  1.0
  O  O53  1  0.882820  0.617180  0.117180  1.0
  O  O54  1  0.882820  0.882820  0.382820  1.0
  O  O55  1  0.617180  0.617180  0.382820  1.0
  O  O56  1  0.617180  0.882820  0.117180  1.0
