# generated using pymatgen
data_Er(CuO2)2
_symmetry_space_group_name_H-M   'P 1'
_cell_length_a   8.78059745
_cell_length_b   8.78059745
_cell_length_c   8.78059745
_cell_angle_alpha   90.00000000
_cell_angle_beta   90.00000000
_cell_angle_gamma   90.00000000
_symmetry_Int_Tables_number   1
_chemical_formula_structural   Er(CuO2)2
_chemical_formula_sum   'Er8 Cu16 O32'
_cell_volume   676.97433087
_cell_formula_units_Z   8
loop_
 _symmetry_equiv_pos_site_id
 _symmetry_equiv_pos_as_xyz
  1  'x, y, z'
loop_
 _atom_site_type_symbol
 _atom_site_label
 _atom_site_symmetry_multiplicity
 _atom_site_fract_x
 _atom_site_fract_y
 _atom_site_fract_z
 _atom_site_occupancy
  Er  Er1  1  0.250000  0.250000  0.250000  1.0
  Er  Er2  1  0.500000  0.500000  0.000000  1.0
  Er  Er3  1  0.250000  0.750000  0.750000  1.0
  Er  Er4  1  0.500000  0.000000  0.500000  1.0
  Er  Er5  1  0.750000  0.250000  0.750000  1.0
  Er  Er6  1  0.000000  0.500000  0.500000  1.0
  Er  Er7  1  0.750000  0.750000  0.250000  1.0
  Er  Er8  1  0.000000  0.000000  0.000000  1.0
  Cu  Cu9  1  0.375000  0.375000  0.625000  1.0
  Cu  Cu10  1  0.375000  0.125000  0.875000  1.0
  Cu  Cu11  1  0.125000  0.125000  0.625000  1.0
  Cu  Cu12  1  0.125000  0.375000  0.875000  1.0
  Cu  Cu13  1  0.375000  0.875000  0.125000  1.0
  Cu  Cu14  1  0.375000  0.625000  0.375000  1.0
  Cu  Cu15  1  0.125000  0.625000  0.125000  1.0
  Cu  Cu16  1  0.125000  0.875000  0.375000  1.0
  Cu  Cu17  1  0.875000  0.375000  0.125000  1.0
  Cu  Cu18  1  0.875000  0.125000  0.375000  1.0
  Cu  Cu19  1  0.625000  0.125000  0.125000  1.0
  Cu  Cu20  1  0.625000  0.375000  0.375000  1.0
  Cu  Cu21  1  0.875000  0.875000  0.625000  1.0
  Cu  Cu22  1  0.875000  0.625000  0.875000  1.0
  Cu  Cu23  1  0.625000  0.625000  0.625000  1.0
  Cu  Cu24  1  0.625000  0.875000  0.875000  1.0
  O  O25  1  0.360570  0.360570  0.860570  1.0
  O  O26  1  0.360570  0.639430  0.139430  1.0
  O  O27  1  0.139430  0.139430  0.860570  1.0
  O  O28  1  0.139430  0.860570  0.139430  1.0
  O  O29  1  0.389430  0.110570  0.110570  1.0
  O  O30  1  0.389430  0.389430  0.389430  1.0
  O  O31  1  0.110570  0.110570  0.389430  1.0
  O  O32  1  0.110570  0.389430  0.110570  1.0
  O  O33  1  0.360570  0.860570  0.360570  1.0
  O  O34  1  0.360570  0.139430  0.639430  1.0
  O  O35  1  0.139430  0.639430  0.360570  1.0
  O  O36  1  0.139430  0.360570  0.639430  1.0
  O  O37  1  0.389430  0.610570  0.610570  1.0
  O  O38  1  0.389430  0.889430  0.889430  1.0
  O  O39  1  0.110570  0.610570  0.889430  1.0
  O  O40  1  0.110570  0.889430  0.610570  1.0
  O  O41  1  0.860570  0.360570  0.360570  1.0
  O  O42  1  0.860570  0.639430  0.639430  1.0
  O  O43  1  0.639430  0.139430  0.360570  1.0
  O  O44  1  0.639430  0.860570  0.639430  1.0
  O  O45  1  0.889430  0.110570  0.610570  1.0
  O  O46  1  0.889430  0.389430  0.889430  1.0
  O  O47  1  0.610570  0.110570  0.889430  1.0
  O  O48  1  0.610570  0.389430  0.610570  1.0
  O  O49  1  0.860570  0.860570  0.860570  1.0
  O  O50  1  0.860570  0.139430  0.139430  1.0
  O  O51  1  0.639430  0.639430  0.860570  1.0
  O  O52  1  0.639430  0.360570  0.139430  1.0
  O  O53  1  0.889430  0.610570  0.110570  1.0
  O  O54  1  0.889430  0.889430  0.389430  1.0
  O  O55  1  0.610570  0.610570  0.389430  1.0
  O  O56  1  0.610570  0.889430  0.110570  1.0
