# generated using pymatgen
data_Dy2ErO4
_symmetry_space_group_name_H-M   'P 1'
_cell_length_a   9.57019531
_cell_length_b   9.57019531
_cell_length_c   9.57019531
_cell_angle_alpha   90.00000000
_cell_angle_beta   90.00000000
_cell_angle_gamma   90.00000000
_symmetry_Int_Tables_number   1
_chemical_formula_structural   Dy2ErO4
_chemical_formula_sum   'Dy16 Er8 O32'
_cell_volume   876.52115605
_cell_formula_units_Z   8
loop_
 _symmetry_equiv_pos_site_id
 _symmetry_equiv_pos_as_xyz
  1  'x, y, z'
loop_
 _atom_site_type_symbol
 _atom_site_label
 _atom_site_symmetry_multiplicity
 _atom_site_fract_x
 _atom_site_fract_y
 _atom_site_fract_z
 _atom_site_occupancy
  Dy  Dy1  1  0.375000  0.375000  0.625000  1.0
  Dy  Dy2  1  0.375000  0.125000  0.875000  1.0
  Dy  Dy3  1  0.125000  0.125000  0.625000  1.0
  Dy  Dy4  1  0.125000  0.375000  0.875000  1.0
  Dy  Dy5  1  0.375000  0.875000  0.125000  1.0
  Dy  Dy6  1  0.375000  0.625000  0.375000  1.0
  Dy  Dy7  1  0.125000  0.625000  0.125000  1.0
  Dy  Dy8  1  0.125000  0.875000  0.375000  1.0
  Dy  Dy9  1  0.875000  0.375000  0.125000  1.0
  Dy  Dy10  1  0.875000  0.125000  0.375000  1.0
  Dy  Dy11  1  0.625000  0.125000  0.125000  1.0
  Dy  Dy12  1  0.625000  0.375000  0.375000  1.0
  Dy  Dy13  1  0.875000  0.875000  0.625000  1.0
  Dy  Dy14  1  0.875000  0.625000  0.875000  1.0
  Dy  Dy15  1  0.625000  0.625000  0.625000  1.0
  Dy  Dy16  1  0.625000  0.875000  0.875000  1.0
  Er  Er17  1  0.250000  0.250000  0.250000  1.0
  Er  Er18  1  0.500000  0.500000  0.000000  1.0
  Er  Er19  1  0.250000  0.750000  0.750000  1.0
  Er  Er20  1  0.500000  0.000000  0.500000  1.0
  Er  Er21  1  0.750000  0.250000  0.750000  1.0
  Er  Er22  1  0.000000  0.500000  0.500000  1.0
  Er  Er23  1  0.750000  0.750000  0.250000  1.0
  Er  Er24  1  0.000000  0.000000  0.000000  1.0
  O  O25  1  0.369000  0.369000  0.869000  1.0
  O  O26  1  0.369000  0.631000  0.131000  1.0
  O  O27  1  0.131000  0.131000  0.869000  1.0
  O  O28  1  0.131000  0.869000  0.131000  1.0
  O  O29  1  0.381000  0.119000  0.119000  1.0
  O  O30  1  0.381000  0.381000  0.381000  1.0
  O  O31  1  0.119000  0.119000  0.381000  1.0
  O  O32  1  0.119000  0.381000  0.119000  1.0
  O  O33  1  0.369000  0.869000  0.369000  1.0
  O  O34  1  0.369000  0.131000  0.631000  1.0
  O  O35  1  0.131000  0.631000  0.369000  1.0
  O  O36  1  0.131000  0.369000  0.631000  1.0
  O  O37  1  0.381000  0.619000  0.619000  1.0
  O  O38  1  0.381000  0.881000  0.881000  1.0
  O  O39  1  0.119000  0.619000  0.881000  1.0
  O  O40  1  0.119000  0.881000  0.619000  1.0
  O  O41  1  0.869000  0.369000  0.369000  1.0
  O  O42  1  0.869000  0.631000  0.631000  1.0
  O  O43  1  0.631000  0.131000  0.369000  1.0
  O  O44  1  0.631000  0.869000  0.631000  1.0
  O  O45  1  0.881000  0.119000  0.619000  1.0
  O  O46  1  0.881000  0.381000  0.881000  1.0
  O  O47  1  0.619000  0.119000  0.881000  1.0
  O  O48  1  0.619000  0.381000  0.619000  1.0
  O  O49  1  0.869000  0.869000  0.869000  1.0
  O  O50  1  0.869000  0.131000  0.131000  1.0
  O  O51  1  0.631000  0.631000  0.869000  1.0
  O  O52  1  0.631000  0.369000  0.131000  1.0
  O  O53  1  0.881000  0.619000  0.119000  1.0
  O  O54  1  0.881000  0.881000  0.381000  1.0
  O  O55  1  0.619000  0.619000  0.381000  1.0
  O  O56  1  0.619000  0.881000  0.119000  1.0
