# generated using pymatgen
data_Eu(TeO2)2
_symmetry_space_group_name_H-M   'P 1'
_cell_length_a   10.03576856
_cell_length_b   10.03576856
_cell_length_c   10.03576856
_cell_angle_alpha   90.00000000
_cell_angle_beta   90.00000000
_cell_angle_gamma   90.00000000
_symmetry_Int_Tables_number   1
_chemical_formula_structural   Eu(TeO2)2
_chemical_formula_sum   'Eu8 Te16 O32'
_cell_volume   1010.76899409
_cell_formula_units_Z   8
loop_
 _symmetry_equiv_pos_site_id
 _symmetry_equiv_pos_as_xyz
  1  'x, y, z'
loop_
 _atom_site_type_symbol
 _atom_site_label
 _atom_site_symmetry_multiplicity
 _atom_site_fract_x
 _atom_site_fract_y
 _atom_site_fract_z
 _atom_site_occupancy
  Eu  Eu1  1  0.250000  0.250000  0.250000  1.0
  Eu  Eu2  1  0.500000  0.500000  0.000000  1.0
  Eu  Eu3  1  0.250000  0.750000  0.750000  1.0
  Eu  Eu4  1  0.500000  0.000000  0.500000  1.0
  Eu  Eu5  1  0.750000  0.250000  0.750000  1.0
  Eu  Eu6  1  0.000000  0.500000  0.500000  1.0
  Eu  Eu7  1  0.750000  0.750000  0.250000  1.0
  Eu  Eu8  1  0.000000  0.000000  0.000000  1.0
  Te  Te9  1  0.375000  0.375000  0.625000  1.0
  Te  Te10  1  0.375000  0.125000  0.875000  1.0
  Te  Te11  1  0.125000  0.125000  0.625000  1.0
  Te  Te12  1  0.125000  0.375000  0.875000  1.0
  Te  Te13  1  0.375000  0.875000  0.125000  1.0
  Te  Te14  1  0.375000  0.625000  0.375000  1.0
  Te  Te15  1  0.125000  0.625000  0.125000  1.0
  Te  Te16  1  0.125000  0.875000  0.375000  1.0
  Te  Te17  1  0.875000  0.375000  0.125000  1.0
  Te  Te18  1  0.875000  0.125000  0.375000  1.0
  Te  Te19  1  0.625000  0.125000  0.125000  1.0
  Te  Te20  1  0.625000  0.375000  0.375000  1.0
  Te  Te21  1  0.875000  0.875000  0.625000  1.0
  Te  Te22  1  0.875000  0.625000  0.875000  1.0
  Te  Te23  1  0.625000  0.625000  0.625000  1.0
  Te  Te24  1  0.625000  0.875000  0.875000  1.0
  O  O25  1  0.357190  0.357190  0.857190  1.0
  O  O26  1  0.357190  0.642810  0.142810  1.0
  O  O27  1  0.142810  0.142810  0.857190  1.0
  O  O28  1  0.142810  0.857190  0.142810  1.0
  O  O29  1  0.392810  0.107190  0.107190  1.0
  O  O30  1  0.392810  0.392810  0.392810  1.0
  O  O31  1  0.107190  0.107190  0.392810  1.0
  O  O32  1  0.107190  0.392810  0.107190  1.0
  O  O33  1  0.357190  0.857190  0.357190  1.0
  O  O34  1  0.357190  0.142810  0.642810  1.0
  O  O35  1  0.142810  0.642810  0.357190  1.0
  O  O36  1  0.142810  0.357190  0.642810  1.0
  O  O37  1  0.392810  0.607190  0.607190  1.0
  O  O38  1  0.392810  0.892810  0.892810  1.0
  O  O39  1  0.107190  0.607190  0.892810  1.0
  O  O40  1  0.107190  0.892810  0.607190  1.0
  O  O41  1  0.857190  0.357190  0.357190  1.0
  O  O42  1  0.857190  0.642810  0.642810  1.0
  O  O43  1  0.642810  0.142810  0.357190  1.0
  O  O44  1  0.642810  0.857190  0.642810  1.0
  O  O45  1  0.892810  0.107190  0.607190  1.0
  O  O46  1  0.892810  0.392810  0.892810  1.0
  O  O47  1  0.607190  0.107190  0.892810  1.0
  O  O48  1  0.607190  0.392810  0.607190  1.0
  O  O49  1  0.857190  0.857190  0.857190  1.0
  O  O50  1  0.857190  0.142810  0.142810  1.0
  O  O51  1  0.642810  0.642810  0.857190  1.0
  O  O52  1  0.642810  0.357190  0.142810  1.0
  O  O53  1  0.892810  0.607190  0.107190  1.0
  O  O54  1  0.892810  0.892810  0.392810  1.0
  O  O55  1  0.607190  0.607190  0.392810  1.0
  O  O56  1  0.607190  0.892810  0.107190  1.0
