# generated using pymatgen
data_Be2FeO4
_symmetry_space_group_name_H-M   'P 1'
_cell_length_a   7.69313793
_cell_length_b   7.69313793
_cell_length_c   7.69313793
_cell_angle_alpha   90.00000000
_cell_angle_beta   90.00000000
_cell_angle_gamma   90.00000000
_symmetry_Int_Tables_number   1
_chemical_formula_structural   Be2FeO4
_chemical_formula_sum   'Be16 Fe8 O32'
_cell_volume   455.31353129
_cell_formula_units_Z   8
loop_
 _symmetry_equiv_pos_site_id
 _symmetry_equiv_pos_as_xyz
  1  'x, y, z'
loop_
 _atom_site_type_symbol
 _atom_site_label
 _atom_site_symmetry_multiplicity
 _atom_site_fract_x
 _atom_site_fract_y
 _atom_site_fract_z
 _atom_site_occupancy
  Be  Be0  1  0.125000  0.125000  0.625000  1.0
  Be  Be1  1  0.375000  0.375000  0.625000  1.0
  Be  Be2  1  0.125000  0.375000  0.875000  1.0
  Be  Be3  1  0.375000  0.125000  0.875000  1.0
  Be  Be4  1  0.125000  0.625000  0.125000  1.0
  Be  Be5  1  0.375000  0.875000  0.125000  1.0
  Be  Be6  1  0.125000  0.875000  0.375000  1.0
  Be  Be7  1  0.375000  0.625000  0.375000  1.0
  Be  Be8  1  0.625000  0.125000  0.125000  1.0
  Be  Be9  1  0.875000  0.375000  0.125000  1.0
  Be  Be10  1  0.625000  0.375000  0.375000  1.0
  Be  Be11  1  0.875000  0.125000  0.375000  1.0
  Be  Be12  1  0.625000  0.625000  0.625000  1.0
  Be  Be13  1  0.875000  0.875000  0.625000  1.0
  Be  Be14  1  0.625000  0.875000  0.875000  1.0
  Be  Be15  1  0.875000  0.625000  0.875000  1.0
  Fe  Fe16  1  0.500000  0.500000  0.000000  1.0
  Fe  Fe17  1  0.250000  0.250000  0.250000  1.0
  Fe  Fe18  1  0.500000  0.000000  0.500000  1.0
  Fe  Fe19  1  0.250000  0.750000  0.750000  1.0
  Fe  Fe20  1  0.000000  0.500000  0.500000  1.0
  Fe  Fe21  1  0.750000  0.250000  0.750000  1.0
  Fe  Fe22  1  0.000000  0.000000  0.000000  1.0
  Fe  Fe23  1  0.750000  0.750000  0.250000  1.0
  O  O24  1  0.113433  0.113433  0.386567  1.0
  O  O25  1  0.363433  0.363433  0.863433  1.0
  O  O26  1  0.136567  0.863433  0.136567  1.0
  O  O27  1  0.363433  0.636567  0.136567  1.0
  O  O28  1  0.113433  0.386567  0.113433  1.0
  O  O29  1  0.386567  0.113433  0.113433  1.0
  O  O30  1  0.136567  0.136567  0.863433  1.0
  O  O31  1  0.386567  0.386567  0.386567  1.0
  O  O32  1  0.113433  0.613433  0.886567  1.0
  O  O33  1  0.363433  0.863433  0.363433  1.0
  O  O34  1  0.136567  0.363433  0.636567  1.0
  O  O35  1  0.363433  0.136567  0.636567  1.0
  O  O36  1  0.113433  0.886567  0.613433  1.0
  O  O37  1  0.386567  0.613433  0.613433  1.0
  O  O38  1  0.136567  0.636567  0.363433  1.0
  O  O39  1  0.386567  0.886567  0.886567  1.0
  O  O40  1  0.613433  0.113433  0.886567  1.0
  O  O41  1  0.863433  0.363433  0.363433  1.0
  O  O42  1  0.636567  0.863433  0.636567  1.0
  O  O43  1  0.863433  0.636567  0.636567  1.0
  O  O44  1  0.613433  0.386567  0.613433  1.0
  O  O45  1  0.886567  0.113433  0.613433  1.0
  O  O46  1  0.636567  0.136567  0.363433  1.0
  O  O47  1  0.886567  0.386567  0.886567  1.0
  O  O48  1  0.613433  0.613433  0.386567  1.0
  O  O49  1  0.863433  0.863433  0.863433  1.0
  O  O50  1  0.636567  0.363433  0.136567  1.0
  O  O51  1  0.863433  0.136567  0.136567  1.0
  O  O52  1  0.613433  0.886567  0.113433  1.0
  O  O53  1  0.886567  0.613433  0.113433  1.0
  O  O54  1  0.636567  0.636567  0.863433  1.0
  O  O55  1  0.886567  0.886567  0.386567  1.0
