# generated using pymatgen
data_Cs2FeO4
_symmetry_space_group_name_H-M   'P 1'
_cell_length_a   9.94855401
_cell_length_b   9.94855401
_cell_length_c   9.94855401
_cell_angle_alpha   90.00000000
_cell_angle_beta   90.00000000
_cell_angle_gamma   90.00000000
_symmetry_Int_Tables_number   1
_chemical_formula_structural   Cs2FeO4
_chemical_formula_sum   'Cs16 Fe8 O32'
_cell_volume   984.64546608
_cell_formula_units_Z   8
loop_
 _symmetry_equiv_pos_site_id
 _symmetry_equiv_pos_as_xyz
  1  'x, y, z'
loop_
 _atom_site_type_symbol
 _atom_site_label
 _atom_site_symmetry_multiplicity
 _atom_site_fract_x
 _atom_site_fract_y
 _atom_site_fract_z
 _atom_site_occupancy
  Cs  Cs0  1  0.125000  0.125000  0.625000  1.0
  Cs  Cs1  1  0.375000  0.375000  0.625000  1.0
  Cs  Cs2  1  0.125000  0.375000  0.875000  1.0
  Cs  Cs3  1  0.375000  0.125000  0.875000  1.0
  Cs  Cs4  1  0.125000  0.625000  0.125000  1.0
  Cs  Cs5  1  0.375000  0.875000  0.125000  1.0
  Cs  Cs6  1  0.125000  0.875000  0.375000  1.0
  Cs  Cs7  1  0.375000  0.625000  0.375000  1.0
  Cs  Cs8  1  0.625000  0.125000  0.125000  1.0
  Cs  Cs9  1  0.875000  0.375000  0.125000  1.0
  Cs  Cs10  1  0.625000  0.375000  0.375000  1.0
  Cs  Cs11  1  0.875000  0.125000  0.375000  1.0
  Cs  Cs12  1  0.625000  0.625000  0.625000  1.0
  Cs  Cs13  1  0.875000  0.875000  0.625000  1.0
  Cs  Cs14  1  0.625000  0.875000  0.875000  1.0
  Cs  Cs15  1  0.875000  0.625000  0.875000  1.0
  Fe  Fe16  1  0.500000  0.500000  0.000000  1.0
  Fe  Fe17  1  0.250000  0.250000  0.250000  1.0
  Fe  Fe18  1  0.500000  0.000000  0.500000  1.0
  Fe  Fe19  1  0.250000  0.750000  0.750000  1.0
  Fe  Fe20  1  0.000000  0.500000  0.500000  1.0
  Fe  Fe21  1  0.750000  0.250000  0.750000  1.0
  Fe  Fe22  1  0.000000  0.000000  0.000000  1.0
  Fe  Fe23  1  0.750000  0.750000  0.250000  1.0
  O  O24  1  0.154237  0.154237  0.345763  1.0
  O  O25  1  0.404237  0.404237  0.904237  1.0
  O  O26  1  0.095763  0.904237  0.095763  1.0
  O  O27  1  0.404237  0.595763  0.095763  1.0
  O  O28  1  0.154237  0.345763  0.154237  1.0
  O  O29  1  0.345763  0.154237  0.154237  1.0
  O  O30  1  0.095763  0.095763  0.904237  1.0
  O  O31  1  0.345763  0.345763  0.345763  1.0
  O  O32  1  0.154237  0.654237  0.845763  1.0
  O  O33  1  0.404237  0.904237  0.404237  1.0
  O  O34  1  0.095763  0.404237  0.595763  1.0
  O  O35  1  0.404237  0.095763  0.595763  1.0
  O  O36  1  0.154237  0.845763  0.654237  1.0
  O  O37  1  0.345763  0.654237  0.654237  1.0
  O  O38  1  0.095763  0.595763  0.404237  1.0
  O  O39  1  0.345763  0.845763  0.845763  1.0
  O  O40  1  0.654237  0.154237  0.845763  1.0
  O  O41  1  0.904237  0.404237  0.404237  1.0
  O  O42  1  0.595763  0.904237  0.595763  1.0
  O  O43  1  0.904237  0.595763  0.595763  1.0
  O  O44  1  0.654237  0.345763  0.654237  1.0
  O  O45  1  0.845763  0.154237  0.654237  1.0
  O  O46  1  0.595763  0.095763  0.404237  1.0
  O  O47  1  0.845763  0.345763  0.845763  1.0
  O  O48  1  0.654237  0.654237  0.345763  1.0
  O  O49  1  0.904237  0.904237  0.904237  1.0
  O  O50  1  0.595763  0.404237  0.095763  1.0
  O  O51  1  0.904237  0.095763  0.095763  1.0
  O  O52  1  0.654237  0.845763  0.154237  1.0
  O  O53  1  0.845763  0.654237  0.154237  1.0
  O  O54  1  0.595763  0.595763  0.904237  1.0
  O  O55  1  0.845763  0.845763  0.345763  1.0
