# generated using pymatgen
data_In2FeO4
_symmetry_space_group_name_H-M   'P 1'
_cell_length_a   8.95296180
_cell_length_b   8.95296180
_cell_length_c   8.95296180
_cell_angle_alpha   90.00000000
_cell_angle_beta   90.00000000
_cell_angle_gamma   90.00000000
_symmetry_Int_Tables_number   1
_chemical_formula_structural   In2FeO4
_chemical_formula_sum   'In16 Fe8 O32'
_cell_volume   717.62935315
_cell_formula_units_Z   8
loop_
 _symmetry_equiv_pos_site_id
 _symmetry_equiv_pos_as_xyz
  1  'x, y, z'
loop_
 _atom_site_type_symbol
 _atom_site_label
 _atom_site_symmetry_multiplicity
 _atom_site_fract_x
 _atom_site_fract_y
 _atom_site_fract_z
 _atom_site_occupancy
  In  In0  1  0.125000  0.125000  0.625000  1.0
  In  In1  1  0.375000  0.375000  0.625000  1.0
  In  In2  1  0.125000  0.375000  0.875000  1.0
  In  In3  1  0.375000  0.125000  0.875000  1.0
  In  In4  1  0.125000  0.625000  0.125000  1.0
  In  In5  1  0.375000  0.875000  0.125000  1.0
  In  In6  1  0.125000  0.875000  0.375000  1.0
  In  In7  1  0.375000  0.625000  0.375000  1.0
  In  In8  1  0.625000  0.125000  0.125000  1.0
  In  In9  1  0.875000  0.375000  0.125000  1.0
  In  In10  1  0.625000  0.375000  0.375000  1.0
  In  In11  1  0.875000  0.125000  0.375000  1.0
  In  In12  1  0.625000  0.625000  0.625000  1.0
  In  In13  1  0.875000  0.875000  0.625000  1.0
  In  In14  1  0.625000  0.875000  0.875000  1.0
  In  In15  1  0.875000  0.625000  0.875000  1.0
  Fe  Fe16  1  0.500000  0.500000  0.000000  1.0
  Fe  Fe17  1  0.250000  0.250000  0.250000  1.0
  Fe  Fe18  1  0.500000  0.000000  0.500000  1.0
  Fe  Fe19  1  0.250000  0.750000  0.750000  1.0
  Fe  Fe20  1  0.000000  0.500000  0.500000  1.0
  Fe  Fe21  1  0.750000  0.250000  0.750000  1.0
  Fe  Fe22  1  0.000000  0.000000  0.000000  1.0
  Fe  Fe23  1  0.750000  0.750000  0.250000  1.0
  O  O24  1  0.127250  0.127250  0.372750  1.0
  O  O25  1  0.377250  0.377250  0.877250  1.0
  O  O26  1  0.122750  0.877250  0.122750  1.0
  O  O27  1  0.377250  0.622750  0.122750  1.0
  O  O28  1  0.127250  0.372750  0.127250  1.0
  O  O29  1  0.372750  0.127250  0.127250  1.0
  O  O30  1  0.122750  0.122750  0.877250  1.0
  O  O31  1  0.372750  0.372750  0.372750  1.0
  O  O32  1  0.127250  0.627250  0.872750  1.0
  O  O33  1  0.377250  0.877250  0.377250  1.0
  O  O34  1  0.122750  0.377250  0.622750  1.0
  O  O35  1  0.377250  0.122750  0.622750  1.0
  O  O36  1  0.127250  0.872750  0.627250  1.0
  O  O37  1  0.372750  0.627250  0.627250  1.0
  O  O38  1  0.122750  0.622750  0.377250  1.0
  O  O39  1  0.372750  0.872750  0.872750  1.0
  O  O40  1  0.627250  0.127250  0.872750  1.0
  O  O41  1  0.877250  0.377250  0.377250  1.0
  O  O42  1  0.622750  0.877250  0.622750  1.0
  O  O43  1  0.877250  0.622750  0.622750  1.0
  O  O44  1  0.627250  0.372750  0.627250  1.0
  O  O45  1  0.872750  0.127250  0.627250  1.0
  O  O46  1  0.622750  0.122750  0.377250  1.0
  O  O47  1  0.872750  0.372750  0.872750  1.0
  O  O48  1  0.627250  0.627250  0.372750  1.0
  O  O49  1  0.877250  0.877250  0.877250  1.0
  O  O50  1  0.622750  0.377250  0.122750  1.0
  O  O51  1  0.877250  0.122750  0.122750  1.0
  O  O52  1  0.627250  0.872750  0.127250  1.0
  O  O53  1  0.872750  0.627250  0.127250  1.0
  O  O54  1  0.622750  0.622750  0.877250  1.0
  O  O55  1  0.872750  0.872750  0.372750  1.0
