# generated using pymatgen
data_Fe(SiO2)2
_symmetry_space_group_name_H-M   'P 1'
_cell_length_a   8.30115077
_cell_length_b   8.30115077
_cell_length_c   8.30115077
_cell_angle_alpha   90.00000000
_cell_angle_beta   90.00000000
_cell_angle_gamma   90.00000000
_symmetry_Int_Tables_number   1
_chemical_formula_structural   Fe(SiO2)2
_chemical_formula_sum   'Fe8 Si16 O32'
_cell_volume   572.02486228
_cell_formula_units_Z   8
loop_
 _symmetry_equiv_pos_site_id
 _symmetry_equiv_pos_as_xyz
  1  'x, y, z'
loop_
 _atom_site_type_symbol
 _atom_site_label
 _atom_site_symmetry_multiplicity
 _atom_site_fract_x
 _atom_site_fract_y
 _atom_site_fract_z
 _atom_site_occupancy
  Fe  Fe0  1  0.500000  0.500000  0.000000  1.0
  Fe  Fe1  1  0.250000  0.250000  0.250000  1.0
  Fe  Fe2  1  0.500000  0.000000  0.500000  1.0
  Fe  Fe3  1  0.250000  0.750000  0.750000  1.0
  Fe  Fe4  1  0.000000  0.500000  0.500000  1.0
  Fe  Fe5  1  0.750000  0.250000  0.750000  1.0
  Fe  Fe6  1  0.000000  0.000000  0.000000  1.0
  Fe  Fe7  1  0.750000  0.750000  0.250000  1.0
  Si  Si8  1  0.125000  0.125000  0.625000  1.0
  Si  Si9  1  0.375000  0.375000  0.625000  1.0
  Si  Si10  1  0.125000  0.375000  0.875000  1.0
  Si  Si11  1  0.375000  0.125000  0.875000  1.0
  Si  Si12  1  0.125000  0.625000  0.125000  1.0
  Si  Si13  1  0.375000  0.875000  0.125000  1.0
  Si  Si14  1  0.125000  0.875000  0.375000  1.0
  Si  Si15  1  0.375000  0.625000  0.375000  1.0
  Si  Si16  1  0.625000  0.125000  0.125000  1.0
  Si  Si17  1  0.875000  0.375000  0.125000  1.0
  Si  Si18  1  0.625000  0.375000  0.375000  1.0
  Si  Si19  1  0.875000  0.125000  0.375000  1.0
  Si  Si20  1  0.625000  0.625000  0.625000  1.0
  Si  Si21  1  0.875000  0.875000  0.625000  1.0
  Si  Si22  1  0.625000  0.875000  0.875000  1.0
  Si  Si23  1  0.875000  0.625000  0.875000  1.0
  O  O24  1  0.105260  0.105260  0.394740  1.0
  O  O25  1  0.355260  0.355260  0.855260  1.0
  O  O26  1  0.144740  0.855260  0.144740  1.0
  O  O27  1  0.355260  0.644740  0.144740  1.0
  O  O28  1  0.105260  0.394740  0.105260  1.0
  O  O29  1  0.394740  0.105260  0.105260  1.0
  O  O30  1  0.144740  0.144740  0.855260  1.0
  O  O31  1  0.394740  0.394740  0.394740  1.0
  O  O32  1  0.105260  0.605260  0.894740  1.0
  O  O33  1  0.355260  0.855260  0.355260  1.0
  O  O34  1  0.144740  0.355260  0.644740  1.0
  O  O35  1  0.355260  0.144740  0.644740  1.0
  O  O36  1  0.105260  0.894740  0.605260  1.0
  O  O37  1  0.394740  0.605260  0.605260  1.0
  O  O38  1  0.144740  0.644740  0.355260  1.0
  O  O39  1  0.394740  0.894740  0.894740  1.0
  O  O40  1  0.605260  0.105260  0.894740  1.0
  O  O41  1  0.855260  0.355260  0.355260  1.0
  O  O42  1  0.644740  0.855260  0.644740  1.0
  O  O43  1  0.855260  0.644740  0.644740  1.0
  O  O44  1  0.605260  0.394740  0.605260  1.0
  O  O45  1  0.894740  0.105260  0.605260  1.0
  O  O46  1  0.644740  0.144740  0.355260  1.0
  O  O47  1  0.894740  0.394740  0.894740  1.0
  O  O48  1  0.605260  0.605260  0.394740  1.0
  O  O49  1  0.855260  0.855260  0.855260  1.0
  O  O50  1  0.644740  0.355260  0.144740  1.0
  O  O51  1  0.855260  0.144740  0.144740  1.0
  O  O52  1  0.605260  0.894740  0.105260  1.0
  O  O53  1  0.894740  0.605260  0.105260  1.0
  O  O54  1  0.644740  0.644740  0.855260  1.0
  O  O55  1  0.894740  0.894740  0.394740  1.0
