# generated using pymatgen
data_Ti2FeO4
_symmetry_space_group_name_H-M   'P 1'
_cell_length_a   8.51785071
_cell_length_b   8.51785071
_cell_length_c   8.51785071
_cell_angle_alpha   90.00000000
_cell_angle_beta   90.00000000
_cell_angle_gamma   90.00000000
_symmetry_Int_Tables_number   1
_chemical_formula_structural   Ti2FeO4
_chemical_formula_sum   'Ti16 Fe8 O32'
_cell_volume   618.00227316
_cell_formula_units_Z   8
loop_
 _symmetry_equiv_pos_site_id
 _symmetry_equiv_pos_as_xyz
  1  'x, y, z'
loop_
 _atom_site_type_symbol
 _atom_site_label
 _atom_site_symmetry_multiplicity
 _atom_site_fract_x
 _atom_site_fract_y
 _atom_site_fract_z
 _atom_site_occupancy
  Ti  Ti0  1  0.125000  0.125000  0.625000  1.0
  Ti  Ti1  1  0.375000  0.375000  0.625000  1.0
  Ti  Ti2  1  0.125000  0.375000  0.875000  1.0
  Ti  Ti3  1  0.375000  0.125000  0.875000  1.0
  Ti  Ti4  1  0.125000  0.625000  0.125000  1.0
  Ti  Ti5  1  0.375000  0.875000  0.125000  1.0
  Ti  Ti6  1  0.125000  0.875000  0.375000  1.0
  Ti  Ti7  1  0.375000  0.625000  0.375000  1.0
  Ti  Ti8  1  0.625000  0.125000  0.125000  1.0
  Ti  Ti9  1  0.875000  0.375000  0.125000  1.0
  Ti  Ti10  1  0.625000  0.375000  0.375000  1.0
  Ti  Ti11  1  0.875000  0.125000  0.375000  1.0
  Ti  Ti12  1  0.625000  0.625000  0.625000  1.0
  Ti  Ti13  1  0.875000  0.875000  0.625000  1.0
  Ti  Ti14  1  0.625000  0.875000  0.875000  1.0
  Ti  Ti15  1  0.875000  0.625000  0.875000  1.0
  Fe  Fe16  1  0.500000  0.500000  0.000000  1.0
  Fe  Fe17  1  0.250000  0.250000  0.250000  1.0
  Fe  Fe18  1  0.500000  0.000000  0.500000  1.0
  Fe  Fe19  1  0.250000  0.750000  0.750000  1.0
  Fe  Fe20  1  0.000000  0.500000  0.500000  1.0
  Fe  Fe21  1  0.750000  0.250000  0.750000  1.0
  Fe  Fe22  1  0.000000  0.000000  0.000000  1.0
  Fe  Fe23  1  0.750000  0.750000  0.250000  1.0
  O  O24  1  0.116037  0.116037  0.383963  1.0
  O  O25  1  0.366037  0.366037  0.866037  1.0
  O  O26  1  0.133963  0.866037  0.133963  1.0
  O  O27  1  0.366037  0.633963  0.133963  1.0
  O  O28  1  0.116037  0.383963  0.116037  1.0
  O  O29  1  0.383963  0.116037  0.116037  1.0
  O  O30  1  0.133963  0.133963  0.866037  1.0
  O  O31  1  0.383963  0.383963  0.383963  1.0
  O  O32  1  0.116037  0.616037  0.883963  1.0
  O  O33  1  0.366037  0.866037  0.366037  1.0
  O  O34  1  0.133963  0.366037  0.633963  1.0
  O  O35  1  0.366037  0.133963  0.633963  1.0
  O  O36  1  0.116037  0.883963  0.616037  1.0
  O  O37  1  0.383963  0.616037  0.616037  1.0
  O  O38  1  0.133963  0.633963  0.366037  1.0
  O  O39  1  0.383963  0.883963  0.883963  1.0
  O  O40  1  0.616037  0.116037  0.883963  1.0
  O  O41  1  0.866037  0.366037  0.366037  1.0
  O  O42  1  0.633963  0.866037  0.633963  1.0
  O  O43  1  0.866037  0.633963  0.633963  1.0
  O  O44  1  0.616037  0.383963  0.616037  1.0
  O  O45  1  0.883963  0.116037  0.616037  1.0
  O  O46  1  0.633963  0.133963  0.366037  1.0
  O  O47  1  0.883963  0.383963  0.883963  1.0
  O  O48  1  0.616037  0.616037  0.383963  1.0
  O  O49  1  0.866037  0.866037  0.866037  1.0
  O  O50  1  0.633963  0.366037  0.133963  1.0
  O  O51  1  0.866037  0.133963  0.133963  1.0
  O  O52  1  0.616037  0.883963  0.116037  1.0
  O  O53  1  0.883963  0.616037  0.116037  1.0
  O  O54  1  0.633963  0.633963  0.866037  1.0
  O  O55  1  0.883963  0.883963  0.383963  1.0
