# generated using pymatgen
data_Th2GaO4
_symmetry_space_group_name_H-M   'P 1'
_cell_length_a   9.45958967
_cell_length_b   9.45958967
_cell_length_c   9.45958967
_cell_angle_alpha   90.00000000
_cell_angle_beta   90.00000000
_cell_angle_gamma   90.00000000
_symmetry_Int_Tables_number   1
_chemical_formula_structural   Th2GaO4
_chemical_formula_sum   'Th16 Ga8 O32'
_cell_volume   846.48037641
_cell_formula_units_Z   8
loop_
 _symmetry_equiv_pos_site_id
 _symmetry_equiv_pos_as_xyz
  1  'x, y, z'
loop_
 _atom_site_type_symbol
 _atom_site_label
 _atom_site_symmetry_multiplicity
 _atom_site_fract_x
 _atom_site_fract_y
 _atom_site_fract_z
 _atom_site_occupancy
  Th  Th0  1  0.125000  0.125000  0.625000  1.0
  Th  Th1  1  0.375000  0.375000  0.625000  1.0
  Th  Th2  1  0.125000  0.375000  0.875000  1.0
  Th  Th3  1  0.375000  0.125000  0.875000  1.0
  Th  Th4  1  0.125000  0.625000  0.125000  1.0
  Th  Th5  1  0.375000  0.875000  0.125000  1.0
  Th  Th6  1  0.125000  0.875000  0.375000  1.0
  Th  Th7  1  0.375000  0.625000  0.375000  1.0
  Th  Th8  1  0.625000  0.125000  0.125000  1.0
  Th  Th9  1  0.875000  0.375000  0.125000  1.0
  Th  Th10  1  0.625000  0.375000  0.375000  1.0
  Th  Th11  1  0.875000  0.125000  0.375000  1.0
  Th  Th12  1  0.625000  0.625000  0.625000  1.0
  Th  Th13  1  0.875000  0.875000  0.625000  1.0
  Th  Th14  1  0.625000  0.875000  0.875000  1.0
  Th  Th15  1  0.875000  0.625000  0.875000  1.0
  Ga  Ga16  1  0.500000  0.500000  0.000000  1.0
  Ga  Ga17  1  0.250000  0.250000  0.250000  1.0
  Ga  Ga18  1  0.500000  0.000000  0.500000  1.0
  Ga  Ga19  1  0.250000  0.750000  0.750000  1.0
  Ga  Ga20  1  0.000000  0.500000  0.500000  1.0
  Ga  Ga21  1  0.750000  0.250000  0.750000  1.0
  Ga  Ga22  1  0.000000  0.000000  0.000000  1.0
  Ga  Ga23  1  0.750000  0.750000  0.250000  1.0
  O  O24  1  0.136010  0.136010  0.363990  1.0
  O  O25  1  0.386010  0.386010  0.886010  1.0
  O  O26  1  0.113990  0.886010  0.113990  1.0
  O  O27  1  0.386010  0.613990  0.113990  1.0
  O  O28  1  0.136010  0.363990  0.136010  1.0
  O  O29  1  0.363990  0.136010  0.136010  1.0
  O  O30  1  0.113990  0.113990  0.886010  1.0
  O  O31  1  0.363990  0.363990  0.363990  1.0
  O  O32  1  0.136010  0.636010  0.863990  1.0
  O  O33  1  0.386010  0.886010  0.386010  1.0
  O  O34  1  0.113990  0.386010  0.613990  1.0
  O  O35  1  0.386010  0.113990  0.613990  1.0
  O  O36  1  0.136010  0.863990  0.636010  1.0
  O  O37  1  0.363990  0.636010  0.636010  1.0
  O  O38  1  0.113990  0.613990  0.386010  1.0
  O  O39  1  0.363990  0.863990  0.863990  1.0
  O  O40  1  0.636010  0.136010  0.863990  1.0
  O  O41  1  0.886010  0.386010  0.386010  1.0
  O  O42  1  0.613990  0.886010  0.613990  1.0
  O  O43  1  0.886010  0.613990  0.613990  1.0
  O  O44  1  0.636010  0.363990  0.636010  1.0
  O  O45  1  0.863990  0.136010  0.636010  1.0
  O  O46  1  0.613990  0.113990  0.386010  1.0
  O  O47  1  0.863990  0.363990  0.863990  1.0
  O  O48  1  0.636010  0.636010  0.363990  1.0
  O  O49  1  0.886010  0.886010  0.886010  1.0
  O  O50  1  0.613990  0.386010  0.113990  1.0
  O  O51  1  0.886010  0.113990  0.113990  1.0
  O  O52  1  0.636010  0.863990  0.136010  1.0
  O  O53  1  0.863990  0.636010  0.136010  1.0
  O  O54  1  0.613990  0.613990  0.886010  1.0
  O  O55  1  0.863990  0.863990  0.363990  1.0
