# generated using pymatgen
data_GdTh2O4
_symmetry_space_group_name_H-M   'P 1'
_cell_length_a   9.79915648
_cell_length_b   9.79915648
_cell_length_c   9.79915648
_cell_angle_alpha   90.00000000
_cell_angle_beta   90.00000000
_cell_angle_gamma   90.00000000
_symmetry_Int_Tables_number   1
_chemical_formula_structural   GdTh2O4
_chemical_formula_sum   'Gd8 Th16 O32'
_cell_volume   940.94898719
_cell_formula_units_Z   8
loop_
 _symmetry_equiv_pos_site_id
 _symmetry_equiv_pos_as_xyz
  1  'x, y, z'
loop_
 _atom_site_type_symbol
 _atom_site_label
 _atom_site_symmetry_multiplicity
 _atom_site_fract_x
 _atom_site_fract_y
 _atom_site_fract_z
 _atom_site_occupancy
  Gd  Gd0  1  0.500000  0.500000  0.000000  1.0
  Gd  Gd1  1  0.250000  0.250000  0.250000  1.0
  Gd  Gd2  1  0.500000  0.000000  0.500000  1.0
  Gd  Gd3  1  0.250000  0.750000  0.750000  1.0
  Gd  Gd4  1  0.000000  0.500000  0.500000  1.0
  Gd  Gd5  1  0.750000  0.250000  0.750000  1.0
  Gd  Gd6  1  0.000000  0.000000  0.000000  1.0
  Gd  Gd7  1  0.750000  0.750000  0.250000  1.0
  Th  Th8  1  0.125000  0.125000  0.625000  1.0
  Th  Th9  1  0.375000  0.375000  0.625000  1.0
  Th  Th10  1  0.125000  0.375000  0.875000  1.0
  Th  Th11  1  0.375000  0.125000  0.875000  1.0
  Th  Th12  1  0.125000  0.625000  0.125000  1.0
  Th  Th13  1  0.375000  0.875000  0.125000  1.0
  Th  Th14  1  0.125000  0.875000  0.375000  1.0
  Th  Th15  1  0.375000  0.625000  0.375000  1.0
  Th  Th16  1  0.625000  0.125000  0.125000  1.0
  Th  Th17  1  0.875000  0.375000  0.125000  1.0
  Th  Th18  1  0.625000  0.375000  0.375000  1.0
  Th  Th19  1  0.875000  0.125000  0.375000  1.0
  Th  Th20  1  0.625000  0.625000  0.625000  1.0
  Th  Th21  1  0.875000  0.875000  0.625000  1.0
  Th  Th22  1  0.625000  0.875000  0.875000  1.0
  Th  Th23  1  0.875000  0.625000  0.875000  1.0
  O  O24  1  0.123983  0.123983  0.376017  1.0
  O  O25  1  0.373983  0.373983  0.873983  1.0
  O  O26  1  0.126017  0.873983  0.126017  1.0
  O  O27  1  0.373983  0.626017  0.126017  1.0
  O  O28  1  0.123983  0.376017  0.123983  1.0
  O  O29  1  0.376017  0.123983  0.123983  1.0
  O  O30  1  0.126017  0.126017  0.873983  1.0
  O  O31  1  0.376017  0.376017  0.376017  1.0
  O  O32  1  0.123983  0.623983  0.876017  1.0
  O  O33  1  0.373983  0.873983  0.373983  1.0
  O  O34  1  0.126017  0.373983  0.626017  1.0
  O  O35  1  0.373983  0.126017  0.626017  1.0
  O  O36  1  0.123983  0.876017  0.623983  1.0
  O  O37  1  0.376017  0.623983  0.623983  1.0
  O  O38  1  0.126017  0.626017  0.373983  1.0
  O  O39  1  0.376017  0.876017  0.876017  1.0
  O  O40  1  0.623983  0.123983  0.876017  1.0
  O  O41  1  0.873983  0.373983  0.373983  1.0
  O  O42  1  0.626017  0.873983  0.626017  1.0
  O  O43  1  0.873983  0.626017  0.626017  1.0
  O  O44  1  0.623983  0.376017  0.623983  1.0
  O  O45  1  0.876017  0.123983  0.623983  1.0
  O  O46  1  0.626017  0.126017  0.373983  1.0
  O  O47  1  0.876017  0.376017  0.876017  1.0
  O  O48  1  0.623983  0.623983  0.376017  1.0
  O  O49  1  0.873983  0.873983  0.873983  1.0
  O  O50  1  0.626017  0.373983  0.126017  1.0
  O  O51  1  0.873983  0.126017  0.126017  1.0
  O  O52  1  0.623983  0.876017  0.123983  1.0
  O  O53  1  0.876017  0.623983  0.123983  1.0
  O  O54  1  0.626017  0.626017  0.873983  1.0
  O  O55  1  0.876017  0.876017  0.376017  1.0
