# generated using pymatgen
data_Be2GeO4
_symmetry_space_group_name_H-M   'P 1'
_cell_length_a   7.65885739
_cell_length_b   7.65885739
_cell_length_c   7.65885739
_cell_angle_alpha   90.00000000
_cell_angle_beta   90.00000000
_cell_angle_gamma   90.00000000
_symmetry_Int_Tables_number   1
_chemical_formula_structural   Be2GeO4
_chemical_formula_sum   'Be16 Ge8 O32'
_cell_volume   449.25399686
_cell_formula_units_Z   8
loop_
 _symmetry_equiv_pos_site_id
 _symmetry_equiv_pos_as_xyz
  1  'x, y, z'
loop_
 _atom_site_type_symbol
 _atom_site_label
 _atom_site_symmetry_multiplicity
 _atom_site_fract_x
 _atom_site_fract_y
 _atom_site_fract_z
 _atom_site_occupancy
  Be  Be0  1  0.125000  0.125000  0.625000  1.0
  Be  Be1  1  0.375000  0.375000  0.625000  1.0
  Be  Be2  1  0.125000  0.375000  0.875000  1.0
  Be  Be3  1  0.375000  0.125000  0.875000  1.0
  Be  Be4  1  0.125000  0.625000  0.125000  1.0
  Be  Be5  1  0.375000  0.875000  0.125000  1.0
  Be  Be6  1  0.125000  0.875000  0.375000  1.0
  Be  Be7  1  0.375000  0.625000  0.375000  1.0
  Be  Be8  1  0.625000  0.125000  0.125000  1.0
  Be  Be9  1  0.875000  0.375000  0.125000  1.0
  Be  Be10  1  0.625000  0.375000  0.375000  1.0
  Be  Be11  1  0.875000  0.125000  0.375000  1.0
  Be  Be12  1  0.625000  0.625000  0.625000  1.0
  Be  Be13  1  0.875000  0.875000  0.625000  1.0
  Be  Be14  1  0.625000  0.875000  0.875000  1.0
  Be  Be15  1  0.875000  0.625000  0.875000  1.0
  Ge  Ge16  1  0.500000  0.500000  0.000000  1.0
  Ge  Ge17  1  0.250000  0.250000  0.250000  1.0
  Ge  Ge18  1  0.500000  0.000000  0.500000  1.0
  Ge  Ge19  1  0.250000  0.750000  0.750000  1.0
  Ge  Ge20  1  0.000000  0.500000  0.500000  1.0
  Ge  Ge21  1  0.750000  0.250000  0.750000  1.0
  Ge  Ge22  1  0.000000  0.000000  0.000000  1.0
  Ge  Ge23  1  0.750000  0.750000  0.250000  1.0
  O  O24  1  0.115153  0.115153  0.384847  1.0
  O  O25  1  0.365153  0.365153  0.865153  1.0
  O  O26  1  0.134847  0.865153  0.134847  1.0
  O  O27  1  0.365153  0.634847  0.134847  1.0
  O  O28  1  0.115153  0.384847  0.115153  1.0
  O  O29  1  0.384847  0.115153  0.115153  1.0
  O  O30  1  0.134847  0.134847  0.865153  1.0
  O  O31  1  0.384847  0.384847  0.384847  1.0
  O  O32  1  0.115153  0.615153  0.884847  1.0
  O  O33  1  0.365153  0.865153  0.365153  1.0
  O  O34  1  0.134847  0.365153  0.634847  1.0
  O  O35  1  0.365153  0.134847  0.634847  1.0
  O  O36  1  0.115153  0.884847  0.615153  1.0
  O  O37  1  0.384847  0.615153  0.615153  1.0
  O  O38  1  0.134847  0.634847  0.365153  1.0
  O  O39  1  0.384847  0.884847  0.884847  1.0
  O  O40  1  0.615153  0.115153  0.884847  1.0
  O  O41  1  0.865153  0.365153  0.365153  1.0
  O  O42  1  0.634847  0.865153  0.634847  1.0
  O  O43  1  0.865153  0.634847  0.634847  1.0
  O  O44  1  0.615153  0.384847  0.615153  1.0
  O  O45  1  0.884847  0.115153  0.615153  1.0
  O  O46  1  0.634847  0.134847  0.365153  1.0
  O  O47  1  0.884847  0.384847  0.884847  1.0
  O  O48  1  0.615153  0.615153  0.384847  1.0
  O  O49  1  0.865153  0.865153  0.865153  1.0
  O  O50  1  0.634847  0.365153  0.134847  1.0
  O  O51  1  0.865153  0.134847  0.134847  1.0
  O  O52  1  0.615153  0.884847  0.115153  1.0
  O  O53  1  0.884847  0.615153  0.115153  1.0
  O  O54  1  0.634847  0.634847  0.865153  1.0
  O  O55  1  0.884847  0.884847  0.384847  1.0
