# generated using pymatgen
data_HfNb2O4
_symmetry_space_group_name_H-M   'P 1'
_cell_length_a   8.93022125
_cell_length_b   8.93022125
_cell_length_c   8.93022125
_cell_angle_alpha   90.00000000
_cell_angle_beta   90.00000000
_cell_angle_gamma   90.00000000
_symmetry_Int_Tables_number   1
_chemical_formula_structural   HfNb2O4
_chemical_formula_sum   'Hf8 Nb16 O32'
_cell_volume   712.17488785
_cell_formula_units_Z   8
loop_
 _symmetry_equiv_pos_site_id
 _symmetry_equiv_pos_as_xyz
  1  'x, y, z'
loop_
 _atom_site_type_symbol
 _atom_site_label
 _atom_site_symmetry_multiplicity
 _atom_site_fract_x
 _atom_site_fract_y
 _atom_site_fract_z
 _atom_site_occupancy
  Hf  Hf0  1  0.500000  0.500000  0.000000  1.0
  Hf  Hf1  1  0.250000  0.250000  0.250000  1.0
  Hf  Hf2  1  0.500000  0.000000  0.500000  1.0
  Hf  Hf3  1  0.250000  0.750000  0.750000  1.0
  Hf  Hf4  1  0.000000  0.500000  0.500000  1.0
  Hf  Hf5  1  0.750000  0.250000  0.750000  1.0
  Hf  Hf6  1  0.000000  0.000000  0.000000  1.0
  Hf  Hf7  1  0.750000  0.750000  0.250000  1.0
  Nb  Nb8  1  0.125000  0.125000  0.625000  1.0
  Nb  Nb9  1  0.375000  0.375000  0.625000  1.0
  Nb  Nb10  1  0.125000  0.375000  0.875000  1.0
  Nb  Nb11  1  0.375000  0.125000  0.875000  1.0
  Nb  Nb12  1  0.125000  0.625000  0.125000  1.0
  Nb  Nb13  1  0.375000  0.875000  0.125000  1.0
  Nb  Nb14  1  0.125000  0.875000  0.375000  1.0
  Nb  Nb15  1  0.375000  0.625000  0.375000  1.0
  Nb  Nb16  1  0.625000  0.125000  0.125000  1.0
  Nb  Nb17  1  0.875000  0.375000  0.125000  1.0
  Nb  Nb18  1  0.625000  0.375000  0.375000  1.0
  Nb  Nb19  1  0.875000  0.125000  0.375000  1.0
  Nb  Nb20  1  0.625000  0.625000  0.625000  1.0
  Nb  Nb21  1  0.875000  0.875000  0.625000  1.0
  Nb  Nb22  1  0.625000  0.875000  0.875000  1.0
  Nb  Nb23  1  0.875000  0.625000  0.875000  1.0
  O  O24  1  0.124570  0.124570  0.375430  1.0
  O  O25  1  0.374570  0.374570  0.874570  1.0
  O  O26  1  0.125430  0.874570  0.125430  1.0
  O  O27  1  0.374570  0.625430  0.125430  1.0
  O  O28  1  0.124570  0.375430  0.124570  1.0
  O  O29  1  0.375430  0.124570  0.124570  1.0
  O  O30  1  0.125430  0.125430  0.874570  1.0
  O  O31  1  0.375430  0.375430  0.375430  1.0
  O  O32  1  0.124570  0.624570  0.875430  1.0
  O  O33  1  0.374570  0.874570  0.374570  1.0
  O  O34  1  0.125430  0.374570  0.625430  1.0
  O  O35  1  0.374570  0.125430  0.625430  1.0
  O  O36  1  0.124570  0.875430  0.624570  1.0
  O  O37  1  0.375430  0.624570  0.624570  1.0
  O  O38  1  0.125430  0.625430  0.374570  1.0
  O  O39  1  0.375430  0.875430  0.875430  1.0
  O  O40  1  0.624570  0.124570  0.875430  1.0
  O  O41  1  0.874570  0.374570  0.374570  1.0
  O  O42  1  0.625430  0.874570  0.625430  1.0
  O  O43  1  0.874570  0.625430  0.625430  1.0
  O  O44  1  0.624570  0.375430  0.624570  1.0
  O  O45  1  0.875430  0.124570  0.624570  1.0
  O  O46  1  0.625430  0.125430  0.374570  1.0
  O  O47  1  0.875430  0.375430  0.875430  1.0
  O  O48  1  0.624570  0.624570  0.375430  1.0
  O  O49  1  0.874570  0.874570  0.874570  1.0
  O  O50  1  0.625430  0.374570  0.125430  1.0
  O  O51  1  0.874570  0.125430  0.125430  1.0
  O  O52  1  0.624570  0.875430  0.124570  1.0
  O  O53  1  0.875430  0.624570  0.124570  1.0
  O  O54  1  0.625430  0.625430  0.874570  1.0
  O  O55  1  0.875430  0.875430  0.375430  1.0
