# generated using pymatgen
data_Np2HgO4
_symmetry_space_group_name_H-M   'P 1'
_cell_length_a   9.87015001
_cell_length_b   9.87015001
_cell_length_c   9.87015001
_cell_angle_alpha   90.00000000
_cell_angle_beta   90.00000000
_cell_angle_gamma   90.00000000
_symmetry_Int_Tables_number   1
_chemical_formula_structural   Np2HgO4
_chemical_formula_sum   'Np16 Hg8 O32'
_cell_volume   961.54864279
_cell_formula_units_Z   8
loop_
 _symmetry_equiv_pos_site_id
 _symmetry_equiv_pos_as_xyz
  1  'x, y, z'
loop_
 _atom_site_type_symbol
 _atom_site_label
 _atom_site_symmetry_multiplicity
 _atom_site_fract_x
 _atom_site_fract_y
 _atom_site_fract_z
 _atom_site_occupancy
  Np  Np0  1  0.125000  0.125000  0.625000  1.0
  Np  Np1  1  0.375000  0.375000  0.625000  1.0
  Np  Np2  1  0.125000  0.375000  0.875000  1.0
  Np  Np3  1  0.375000  0.125000  0.875000  1.0
  Np  Np4  1  0.125000  0.625000  0.125000  1.0
  Np  Np5  1  0.375000  0.875000  0.125000  1.0
  Np  Np6  1  0.125000  0.875000  0.375000  1.0
  Np  Np7  1  0.375000  0.625000  0.375000  1.0
  Np  Np8  1  0.625000  0.125000  0.125000  1.0
  Np  Np9  1  0.875000  0.375000  0.125000  1.0
  Np  Np10  1  0.625000  0.375000  0.375000  1.0
  Np  Np11  1  0.875000  0.125000  0.375000  1.0
  Np  Np12  1  0.625000  0.625000  0.625000  1.0
  Np  Np13  1  0.875000  0.875000  0.625000  1.0
  Np  Np14  1  0.625000  0.875000  0.875000  1.0
  Np  Np15  1  0.875000  0.625000  0.875000  1.0
  Hg  Hg16  1  0.500000  0.500000  0.000000  1.0
  Hg  Hg17  1  0.250000  0.250000  0.250000  1.0
  Hg  Hg18  1  0.500000  0.000000  0.500000  1.0
  Hg  Hg19  1  0.250000  0.750000  0.750000  1.0
  Hg  Hg20  1  0.000000  0.500000  0.500000  1.0
  Hg  Hg21  1  0.750000  0.250000  0.750000  1.0
  Hg  Hg22  1  0.000000  0.000000  0.000000  1.0
  Hg  Hg23  1  0.750000  0.750000  0.250000  1.0
  O  O24  1  0.096680  0.096680  0.403320  1.0
  O  O25  1  0.346680  0.346680  0.846680  1.0
  O  O26  1  0.153320  0.846680  0.153320  1.0
  O  O27  1  0.346680  0.653320  0.153320  1.0
  O  O28  1  0.096680  0.403320  0.096680  1.0
  O  O29  1  0.403320  0.096680  0.096680  1.0
  O  O30  1  0.153320  0.153320  0.846680  1.0
  O  O31  1  0.403320  0.403320  0.403320  1.0
  O  O32  1  0.096680  0.596680  0.903320  1.0
  O  O33  1  0.346680  0.846680  0.346680  1.0
  O  O34  1  0.153320  0.346680  0.653320  1.0
  O  O35  1  0.346680  0.153320  0.653320  1.0
  O  O36  1  0.096680  0.903320  0.596680  1.0
  O  O37  1  0.403320  0.596680  0.596680  1.0
  O  O38  1  0.153320  0.653320  0.346680  1.0
  O  O39  1  0.403320  0.903320  0.903320  1.0
  O  O40  1  0.596680  0.096680  0.903320  1.0
  O  O41  1  0.846680  0.346680  0.346680  1.0
  O  O42  1  0.653320  0.846680  0.653320  1.0
  O  O43  1  0.846680  0.653320  0.653320  1.0
  O  O44  1  0.596680  0.403320  0.596680  1.0
  O  O45  1  0.903320  0.096680  0.596680  1.0
  O  O46  1  0.653320  0.153320  0.346680  1.0
  O  O47  1  0.903320  0.403320  0.903320  1.0
  O  O48  1  0.596680  0.596680  0.403320  1.0
  O  O49  1  0.846680  0.846680  0.846680  1.0
  O  O50  1  0.653320  0.346680  0.153320  1.0
  O  O51  1  0.846680  0.153320  0.153320  1.0
  O  O52  1  0.596680  0.903320  0.096680  1.0
  O  O53  1  0.903320  0.596680  0.096680  1.0
  O  O54  1  0.653320  0.653320  0.846680  1.0
  O  O55  1  0.903320  0.903320  0.403320  1.0
