# generated using pymatgen
data_Hg(OsO2)2
_symmetry_space_group_name_H-M   'P 1'
_cell_length_a   9.07459831
_cell_length_b   9.07459831
_cell_length_c   9.07459831
_cell_angle_alpha   90.00000000
_cell_angle_beta   90.00000000
_cell_angle_gamma   90.00000000
_symmetry_Int_Tables_number   1
_chemical_formula_structural   Hg(OsO2)2
_chemical_formula_sum   'Hg8 Os16 O32'
_cell_volume   747.27805644
_cell_formula_units_Z   8
loop_
 _symmetry_equiv_pos_site_id
 _symmetry_equiv_pos_as_xyz
  1  'x, y, z'
loop_
 _atom_site_type_symbol
 _atom_site_label
 _atom_site_symmetry_multiplicity
 _atom_site_fract_x
 _atom_site_fract_y
 _atom_site_fract_z
 _atom_site_occupancy
  Hg  Hg0  1  0.500000  0.500000  0.000000  1.0
  Hg  Hg1  1  0.250000  0.250000  0.250000  1.0
  Hg  Hg2  1  0.500000  0.000000  0.500000  1.0
  Hg  Hg3  1  0.250000  0.750000  0.750000  1.0
  Hg  Hg4  1  0.000000  0.500000  0.500000  1.0
  Hg  Hg5  1  0.750000  0.250000  0.750000  1.0
  Hg  Hg6  1  0.000000  0.000000  0.000000  1.0
  Hg  Hg7  1  0.750000  0.750000  0.250000  1.0
  Os  Os8  1  0.125000  0.125000  0.625000  1.0
  Os  Os9  1  0.375000  0.375000  0.625000  1.0
  Os  Os10  1  0.125000  0.375000  0.875000  1.0
  Os  Os11  1  0.375000  0.125000  0.875000  1.0
  Os  Os12  1  0.125000  0.625000  0.125000  1.0
  Os  Os13  1  0.375000  0.875000  0.125000  1.0
  Os  Os14  1  0.125000  0.875000  0.375000  1.0
  Os  Os15  1  0.375000  0.625000  0.375000  1.0
  Os  Os16  1  0.625000  0.125000  0.125000  1.0
  Os  Os17  1  0.875000  0.375000  0.125000  1.0
  Os  Os18  1  0.625000  0.375000  0.375000  1.0
  Os  Os19  1  0.875000  0.125000  0.375000  1.0
  Os  Os20  1  0.625000  0.625000  0.625000  1.0
  Os  Os21  1  0.875000  0.875000  0.625000  1.0
  Os  Os22  1  0.625000  0.875000  0.875000  1.0
  Os  Os23  1  0.875000  0.625000  0.875000  1.0
  O  O24  1  0.101703  0.101703  0.398297  1.0
  O  O25  1  0.351703  0.351703  0.851703  1.0
  O  O26  1  0.148297  0.851703  0.148297  1.0
  O  O27  1  0.351703  0.648297  0.148297  1.0
  O  O28  1  0.101703  0.398297  0.101703  1.0
  O  O29  1  0.398297  0.101703  0.101703  1.0
  O  O30  1  0.148297  0.148297  0.851703  1.0
  O  O31  1  0.398297  0.398297  0.398297  1.0
  O  O32  1  0.101703  0.601703  0.898297  1.0
  O  O33  1  0.351703  0.851703  0.351703  1.0
  O  O34  1  0.148297  0.351703  0.648297  1.0
  O  O35  1  0.351703  0.148297  0.648297  1.0
  O  O36  1  0.101703  0.898297  0.601703  1.0
  O  O37  1  0.398297  0.601703  0.601703  1.0
  O  O38  1  0.148297  0.648297  0.351703  1.0
  O  O39  1  0.398297  0.898297  0.898297  1.0
  O  O40  1  0.601703  0.101703  0.898297  1.0
  O  O41  1  0.851703  0.351703  0.351703  1.0
  O  O42  1  0.648297  0.851703  0.648297  1.0
  O  O43  1  0.851703  0.648297  0.648297  1.0
  O  O44  1  0.601703  0.398297  0.601703  1.0
  O  O45  1  0.898297  0.101703  0.601703  1.0
  O  O46  1  0.648297  0.148297  0.351703  1.0
  O  O47  1  0.898297  0.398297  0.898297  1.0
  O  O48  1  0.601703  0.601703  0.398297  1.0
  O  O49  1  0.851703  0.851703  0.851703  1.0
  O  O50  1  0.648297  0.351703  0.148297  1.0
  O  O51  1  0.851703  0.148297  0.148297  1.0
  O  O52  1  0.601703  0.898297  0.101703  1.0
  O  O53  1  0.898297  0.601703  0.101703  1.0
  O  O54  1  0.648297  0.648297  0.851703  1.0
  O  O55  1  0.898297  0.898297  0.398297  1.0
