# generated using pymatgen
data_HoMn2O4
_symmetry_space_group_name_H-M   'P 1'
_cell_length_a   8.63613553
_cell_length_b   8.63613553
_cell_length_c   8.63613553
_cell_angle_alpha   90.00000000
_cell_angle_beta   90.00000000
_cell_angle_gamma   90.00000000
_symmetry_Int_Tables_number   1
_chemical_formula_structural   HoMn2O4
_chemical_formula_sum   'Ho8 Mn16 O32'
_cell_volume   644.10748872
_cell_formula_units_Z   8
loop_
 _symmetry_equiv_pos_site_id
 _symmetry_equiv_pos_as_xyz
  1  'x, y, z'
loop_
 _atom_site_type_symbol
 _atom_site_label
 _atom_site_symmetry_multiplicity
 _atom_site_fract_x
 _atom_site_fract_y
 _atom_site_fract_z
 _atom_site_occupancy
  Ho  Ho0  1  0.500000  0.500000  0.000000  1.0
  Ho  Ho1  1  0.250000  0.250000  0.250000  1.0
  Ho  Ho2  1  0.500000  0.000000  0.500000  1.0
  Ho  Ho3  1  0.250000  0.750000  0.750000  1.0
  Ho  Ho4  1  0.000000  0.500000  0.500000  1.0
  Ho  Ho5  1  0.750000  0.250000  0.750000  1.0
  Ho  Ho6  1  0.000000  0.000000  0.000000  1.0
  Ho  Ho7  1  0.750000  0.750000  0.250000  1.0
  Mn  Mn8  1  0.125000  0.125000  0.625000  1.0
  Mn  Mn9  1  0.375000  0.375000  0.625000  1.0
  Mn  Mn10  1  0.125000  0.375000  0.875000  1.0
  Mn  Mn11  1  0.375000  0.125000  0.875000  1.0
  Mn  Mn12  1  0.125000  0.625000  0.125000  1.0
  Mn  Mn13  1  0.375000  0.875000  0.125000  1.0
  Mn  Mn14  1  0.125000  0.875000  0.375000  1.0
  Mn  Mn15  1  0.375000  0.625000  0.375000  1.0
  Mn  Mn16  1  0.625000  0.125000  0.125000  1.0
  Mn  Mn17  1  0.875000  0.375000  0.125000  1.0
  Mn  Mn18  1  0.625000  0.375000  0.375000  1.0
  Mn  Mn19  1  0.875000  0.125000  0.375000  1.0
  Mn  Mn20  1  0.625000  0.625000  0.625000  1.0
  Mn  Mn21  1  0.875000  0.875000  0.625000  1.0
  Mn  Mn22  1  0.625000  0.875000  0.875000  1.0
  Mn  Mn23  1  0.875000  0.625000  0.875000  1.0
  O  O24  1  0.108150  0.108150  0.391850  1.0
  O  O25  1  0.358150  0.358150  0.858150  1.0
  O  O26  1  0.141850  0.858150  0.141850  1.0
  O  O27  1  0.358150  0.641850  0.141850  1.0
  O  O28  1  0.108150  0.391850  0.108150  1.0
  O  O29  1  0.391850  0.108150  0.108150  1.0
  O  O30  1  0.141850  0.141850  0.858150  1.0
  O  O31  1  0.391850  0.391850  0.391850  1.0
  O  O32  1  0.108150  0.608150  0.891850  1.0
  O  O33  1  0.358150  0.858150  0.358150  1.0
  O  O34  1  0.141850  0.358150  0.641850  1.0
  O  O35  1  0.358150  0.141850  0.641850  1.0
  O  O36  1  0.108150  0.891850  0.608150  1.0
  O  O37  1  0.391850  0.608150  0.608150  1.0
  O  O38  1  0.141850  0.641850  0.358150  1.0
  O  O39  1  0.391850  0.891850  0.891850  1.0
  O  O40  1  0.608150  0.108150  0.891850  1.0
  O  O41  1  0.858150  0.358150  0.358150  1.0
  O  O42  1  0.641850  0.858150  0.641850  1.0
  O  O43  1  0.858150  0.641850  0.641850  1.0
  O  O44  1  0.608150  0.391850  0.608150  1.0
  O  O45  1  0.891850  0.108150  0.608150  1.0
  O  O46  1  0.641850  0.141850  0.358150  1.0
  O  O47  1  0.891850  0.391850  0.891850  1.0
  O  O48  1  0.608150  0.608150  0.391850  1.0
  O  O49  1  0.858150  0.858150  0.858150  1.0
  O  O50  1  0.641850  0.358150  0.141850  1.0
  O  O51  1  0.858150  0.141850  0.141850  1.0
  O  O52  1  0.608150  0.891850  0.108150  1.0
  O  O53  1  0.891850  0.608150  0.108150  1.0
  O  O54  1  0.641850  0.641850  0.858150  1.0
  O  O55  1  0.891850  0.891850  0.391850  1.0
