# generated using pymatgen
data_HoTa2O4
_symmetry_space_group_name_H-M   'P 1'
_cell_length_a   9.04020463
_cell_length_b   9.04020463
_cell_length_c   9.04020463
_cell_angle_alpha   90.00000000
_cell_angle_beta   90.00000000
_cell_angle_gamma   90.00000000
_symmetry_Int_Tables_number   1
_chemical_formula_structural   HoTa2O4
_chemical_formula_sum   'Ho8 Ta16 O32'
_cell_volume   738.81343418
_cell_formula_units_Z   8
loop_
 _symmetry_equiv_pos_site_id
 _symmetry_equiv_pos_as_xyz
  1  'x, y, z'
loop_
 _atom_site_type_symbol
 _atom_site_label
 _atom_site_symmetry_multiplicity
 _atom_site_fract_x
 _atom_site_fract_y
 _atom_site_fract_z
 _atom_site_occupancy
  Ho  Ho0  1  0.500000  0.500000  0.000000  1.0
  Ho  Ho1  1  0.250000  0.250000  0.250000  1.0
  Ho  Ho2  1  0.500000  0.000000  0.500000  1.0
  Ho  Ho3  1  0.250000  0.750000  0.750000  1.0
  Ho  Ho4  1  0.000000  0.500000  0.500000  1.0
  Ho  Ho5  1  0.750000  0.250000  0.750000  1.0
  Ho  Ho6  1  0.000000  0.000000  0.000000  1.0
  Ho  Ho7  1  0.750000  0.750000  0.250000  1.0
  Ta  Ta8  1  0.125000  0.125000  0.625000  1.0
  Ta  Ta9  1  0.375000  0.375000  0.625000  1.0
  Ta  Ta10  1  0.125000  0.375000  0.875000  1.0
  Ta  Ta11  1  0.375000  0.125000  0.875000  1.0
  Ta  Ta12  1  0.125000  0.625000  0.125000  1.0
  Ta  Ta13  1  0.375000  0.875000  0.125000  1.0
  Ta  Ta14  1  0.125000  0.875000  0.375000  1.0
  Ta  Ta15  1  0.375000  0.625000  0.375000  1.0
  Ta  Ta16  1  0.625000  0.125000  0.125000  1.0
  Ta  Ta17  1  0.875000  0.375000  0.125000  1.0
  Ta  Ta18  1  0.625000  0.375000  0.375000  1.0
  Ta  Ta19  1  0.875000  0.125000  0.375000  1.0
  Ta  Ta20  1  0.625000  0.625000  0.625000  1.0
  Ta  Ta21  1  0.875000  0.875000  0.625000  1.0
  Ta  Ta22  1  0.625000  0.875000  0.875000  1.0
  Ta  Ta23  1  0.875000  0.625000  0.875000  1.0
  O  O24  1  0.116360  0.116360  0.383640  1.0
  O  O25  1  0.366360  0.366360  0.866360  1.0
  O  O26  1  0.133640  0.866360  0.133640  1.0
  O  O27  1  0.366360  0.633640  0.133640  1.0
  O  O28  1  0.116360  0.383640  0.116360  1.0
  O  O29  1  0.383640  0.116360  0.116360  1.0
  O  O30  1  0.133640  0.133640  0.866360  1.0
  O  O31  1  0.383640  0.383640  0.383640  1.0
  O  O32  1  0.116360  0.616360  0.883640  1.0
  O  O33  1  0.366360  0.866360  0.366360  1.0
  O  O34  1  0.133640  0.366360  0.633640  1.0
  O  O35  1  0.366360  0.133640  0.633640  1.0
  O  O36  1  0.116360  0.883640  0.616360  1.0
  O  O37  1  0.383640  0.616360  0.616360  1.0
  O  O38  1  0.133640  0.633640  0.366360  1.0
  O  O39  1  0.383640  0.883640  0.883640  1.0
  O  O40  1  0.616360  0.116360  0.883640  1.0
  O  O41  1  0.866360  0.366360  0.366360  1.0
  O  O42  1  0.633640  0.866360  0.633640  1.0
  O  O43  1  0.866360  0.633640  0.633640  1.0
  O  O44  1  0.616360  0.383640  0.616360  1.0
  O  O45  1  0.883640  0.116360  0.616360  1.0
  O  O46  1  0.633640  0.133640  0.366360  1.0
  O  O47  1  0.883640  0.383640  0.883640  1.0
  O  O48  1  0.616360  0.616360  0.383640  1.0
  O  O49  1  0.866360  0.866360  0.866360  1.0
  O  O50  1  0.633640  0.366360  0.133640  1.0
  O  O51  1  0.866360  0.133640  0.133640  1.0
  O  O52  1  0.616360  0.883640  0.116360  1.0
  O  O53  1  0.883640  0.616360  0.116360  1.0
  O  O54  1  0.633640  0.633640  0.866360  1.0
  O  O55  1  0.883640  0.883640  0.383640  1.0
