# generated using pymatgen
data_In(FeO2)2
_symmetry_space_group_name_H-M   'P 1'
_cell_length_a   8.47516975
_cell_length_b   8.47516975
_cell_length_c   8.47516975
_cell_angle_alpha   90.00000000
_cell_angle_beta   90.00000000
_cell_angle_gamma   90.00000000
_symmetry_Int_Tables_number   1
_chemical_formula_structural   In(FeO2)2
_chemical_formula_sum   'In8 Fe16 O32'
_cell_volume   608.75874922
_cell_formula_units_Z   8
loop_
 _symmetry_equiv_pos_site_id
 _symmetry_equiv_pos_as_xyz
  1  'x, y, z'
loop_
 _atom_site_type_symbol
 _atom_site_label
 _atom_site_symmetry_multiplicity
 _atom_site_fract_x
 _atom_site_fract_y
 _atom_site_fract_z
 _atom_site_occupancy
  In  In0  1  0.500000  0.500000  0.000000  1.0
  In  In1  1  0.250000  0.250000  0.250000  1.0
  In  In2  1  0.500000  0.000000  0.500000  1.0
  In  In3  1  0.250000  0.750000  0.750000  1.0
  In  In4  1  0.000000  0.500000  0.500000  1.0
  In  In5  1  0.750000  0.250000  0.750000  1.0
  In  In6  1  0.000000  0.000000  0.000000  1.0
  In  In7  1  0.750000  0.750000  0.250000  1.0
  Fe  Fe8  1  0.125000  0.125000  0.625000  1.0
  Fe  Fe9  1  0.375000  0.375000  0.625000  1.0
  Fe  Fe10  1  0.125000  0.375000  0.875000  1.0
  Fe  Fe11  1  0.375000  0.125000  0.875000  1.0
  Fe  Fe12  1  0.125000  0.625000  0.125000  1.0
  Fe  Fe13  1  0.375000  0.875000  0.125000  1.0
  Fe  Fe14  1  0.125000  0.875000  0.375000  1.0
  Fe  Fe15  1  0.375000  0.625000  0.375000  1.0
  Fe  Fe16  1  0.625000  0.125000  0.125000  1.0
  Fe  Fe17  1  0.875000  0.375000  0.125000  1.0
  Fe  Fe18  1  0.625000  0.375000  0.375000  1.0
  Fe  Fe19  1  0.875000  0.125000  0.375000  1.0
  Fe  Fe20  1  0.625000  0.625000  0.625000  1.0
  Fe  Fe21  1  0.875000  0.875000  0.625000  1.0
  Fe  Fe22  1  0.625000  0.875000  0.875000  1.0
  Fe  Fe23  1  0.875000  0.625000  0.875000  1.0
  O  O24  1  0.106627  0.106627  0.393373  1.0
  O  O25  1  0.356627  0.356627  0.856627  1.0
  O  O26  1  0.143373  0.856627  0.143373  1.0
  O  O27  1  0.356627  0.643373  0.143373  1.0
  O  O28  1  0.106627  0.393373  0.106627  1.0
  O  O29  1  0.393373  0.106627  0.106627  1.0
  O  O30  1  0.143373  0.143373  0.856627  1.0
  O  O31  1  0.393373  0.393373  0.393373  1.0
  O  O32  1  0.106627  0.606627  0.893373  1.0
  O  O33  1  0.356627  0.856627  0.356627  1.0
  O  O34  1  0.143373  0.356627  0.643373  1.0
  O  O35  1  0.356627  0.143373  0.643373  1.0
  O  O36  1  0.106627  0.893373  0.606627  1.0
  O  O37  1  0.393373  0.606627  0.606627  1.0
  O  O38  1  0.143373  0.643373  0.356627  1.0
  O  O39  1  0.393373  0.893373  0.893373  1.0
  O  O40  1  0.606627  0.106627  0.893373  1.0
  O  O41  1  0.856627  0.356627  0.356627  1.0
  O  O42  1  0.643373  0.856627  0.643373  1.0
  O  O43  1  0.856627  0.643373  0.643373  1.0
  O  O44  1  0.606627  0.393373  0.606627  1.0
  O  O45  1  0.893373  0.106627  0.606627  1.0
  O  O46  1  0.643373  0.143373  0.356627  1.0
  O  O47  1  0.893373  0.393373  0.893373  1.0
  O  O48  1  0.606627  0.606627  0.393373  1.0
  O  O49  1  0.856627  0.856627  0.856627  1.0
  O  O50  1  0.643373  0.356627  0.143373  1.0
  O  O51  1  0.856627  0.143373  0.143373  1.0
  O  O52  1  0.606627  0.893373  0.106627  1.0
  O  O53  1  0.893373  0.606627  0.106627  1.0
  O  O54  1  0.643373  0.643373  0.856627  1.0
  O  O55  1  0.893373  0.893373  0.393373  1.0
