# generated using pymatgen
data_LaSm2O4
_symmetry_space_group_name_H-M   'P 1'
_cell_length_a   9.77420976
_cell_length_b   9.77420976
_cell_length_c   9.77420976
_cell_angle_alpha   90.00000000
_cell_angle_beta   90.00000000
_cell_angle_gamma   90.00000000
_symmetry_Int_Tables_number   1
_chemical_formula_structural   LaSm2O4
_chemical_formula_sum   'La8 Sm16 O32'
_cell_volume   933.78085308
_cell_formula_units_Z   8
loop_
 _symmetry_equiv_pos_site_id
 _symmetry_equiv_pos_as_xyz
  1  'x, y, z'
loop_
 _atom_site_type_symbol
 _atom_site_label
 _atom_site_symmetry_multiplicity
 _atom_site_fract_x
 _atom_site_fract_y
 _atom_site_fract_z
 _atom_site_occupancy
  La  La0  1  0.500000  0.500000  0.000000  1.0
  La  La1  1  0.250000  0.250000  0.250000  1.0
  La  La2  1  0.500000  0.000000  0.500000  1.0
  La  La3  1  0.250000  0.750000  0.750000  1.0
  La  La4  1  0.000000  0.500000  0.500000  1.0
  La  La5  1  0.750000  0.250000  0.750000  1.0
  La  La6  1  0.000000  0.000000  0.000000  1.0
  La  La7  1  0.750000  0.750000  0.250000  1.0
  Sm  Sm8  1  0.125000  0.125000  0.625000  1.0
  Sm  Sm9  1  0.375000  0.375000  0.625000  1.0
  Sm  Sm10  1  0.125000  0.375000  0.875000  1.0
  Sm  Sm11  1  0.375000  0.125000  0.875000  1.0
  Sm  Sm12  1  0.125000  0.625000  0.125000  1.0
  Sm  Sm13  1  0.375000  0.875000  0.125000  1.0
  Sm  Sm14  1  0.125000  0.875000  0.375000  1.0
  Sm  Sm15  1  0.375000  0.625000  0.375000  1.0
  Sm  Sm16  1  0.625000  0.125000  0.125000  1.0
  Sm  Sm17  1  0.875000  0.375000  0.125000  1.0
  Sm  Sm18  1  0.625000  0.375000  0.375000  1.0
  Sm  Sm19  1  0.875000  0.125000  0.375000  1.0
  Sm  Sm20  1  0.625000  0.625000  0.625000  1.0
  Sm  Sm21  1  0.875000  0.875000  0.625000  1.0
  Sm  Sm22  1  0.625000  0.875000  0.875000  1.0
  Sm  Sm23  1  0.875000  0.625000  0.875000  1.0
  O  O24  1  0.114397  0.114397  0.385603  1.0
  O  O25  1  0.364397  0.364397  0.864397  1.0
  O  O26  1  0.135603  0.864397  0.135603  1.0
  O  O27  1  0.364397  0.635603  0.135603  1.0
  O  O28  1  0.114397  0.385603  0.114397  1.0
  O  O29  1  0.385603  0.114397  0.114397  1.0
  O  O30  1  0.135603  0.135603  0.864397  1.0
  O  O31  1  0.385603  0.385603  0.385603  1.0
  O  O32  1  0.114397  0.614397  0.885603  1.0
  O  O33  1  0.364397  0.864397  0.364397  1.0
  O  O34  1  0.135603  0.364397  0.635603  1.0
  O  O35  1  0.364397  0.135603  0.635603  1.0
  O  O36  1  0.114397  0.885603  0.614397  1.0
  O  O37  1  0.385603  0.614397  0.614397  1.0
  O  O38  1  0.135603  0.635603  0.364397  1.0
  O  O39  1  0.385603  0.885603  0.885603  1.0
  O  O40  1  0.614397  0.114397  0.885603  1.0
  O  O41  1  0.864397  0.364397  0.364397  1.0
  O  O42  1  0.635603  0.864397  0.635603  1.0
  O  O43  1  0.864397  0.635603  0.635603  1.0
  O  O44  1  0.614397  0.385603  0.614397  1.0
  O  O45  1  0.885603  0.114397  0.614397  1.0
  O  O46  1  0.635603  0.135603  0.364397  1.0
  O  O47  1  0.885603  0.385603  0.885603  1.0
  O  O48  1  0.614397  0.614397  0.385603  1.0
  O  O49  1  0.864397  0.864397  0.864397  1.0
  O  O50  1  0.635603  0.364397  0.135603  1.0
  O  O51  1  0.864397  0.135603  0.135603  1.0
  O  O52  1  0.614397  0.885603  0.114397  1.0
  O  O53  1  0.885603  0.614397  0.114397  1.0
  O  O54  1  0.635603  0.635603  0.864397  1.0
  O  O55  1  0.885603  0.885603  0.385603  1.0
