# generated using pymatgen
data_LaU2O4
_symmetry_space_group_name_H-M   'P 1'
_cell_length_a   9.96723577
_cell_length_b   9.96723577
_cell_length_c   9.96723577
_cell_angle_alpha   90.00000000
_cell_angle_beta   90.00000000
_cell_angle_gamma   90.00000000
_symmetry_Int_Tables_number   1
_chemical_formula_structural   LaU2O4
_chemical_formula_sum   'La8 U16 O32'
_cell_volume   990.20289955
_cell_formula_units_Z   8
loop_
 _symmetry_equiv_pos_site_id
 _symmetry_equiv_pos_as_xyz
  1  'x, y, z'
loop_
 _atom_site_type_symbol
 _atom_site_label
 _atom_site_symmetry_multiplicity
 _atom_site_fract_x
 _atom_site_fract_y
 _atom_site_fract_z
 _atom_site_occupancy
  La  La0  1  0.500000  0.500000  0.000000  1.0
  La  La1  1  0.250000  0.250000  0.250000  1.0
  La  La2  1  0.500000  0.000000  0.500000  1.0
  La  La3  1  0.250000  0.750000  0.750000  1.0
  La  La4  1  0.000000  0.500000  0.500000  1.0
  La  La5  1  0.750000  0.250000  0.750000  1.0
  La  La6  1  0.000000  0.000000  0.000000  1.0
  La  La7  1  0.750000  0.750000  0.250000  1.0
  U  U8  1  0.125000  0.125000  0.625000  1.0
  U  U9  1  0.375000  0.375000  0.625000  1.0
  U  U10  1  0.125000  0.375000  0.875000  1.0
  U  U11  1  0.375000  0.125000  0.875000  1.0
  U  U12  1  0.125000  0.625000  0.125000  1.0
  U  U13  1  0.375000  0.875000  0.125000  1.0
  U  U14  1  0.125000  0.875000  0.375000  1.0
  U  U15  1  0.375000  0.625000  0.375000  1.0
  U  U16  1  0.625000  0.125000  0.125000  1.0
  U  U17  1  0.875000  0.375000  0.125000  1.0
  U  U18  1  0.625000  0.375000  0.375000  1.0
  U  U19  1  0.875000  0.125000  0.375000  1.0
  U  U20  1  0.625000  0.625000  0.625000  1.0
  U  U21  1  0.875000  0.875000  0.625000  1.0
  U  U22  1  0.625000  0.875000  0.875000  1.0
  U  U23  1  0.875000  0.625000  0.875000  1.0
  O  O24  1  0.110357  0.110357  0.389643  1.0
  O  O25  1  0.360357  0.360357  0.860357  1.0
  O  O26  1  0.139643  0.860357  0.139643  1.0
  O  O27  1  0.360357  0.639643  0.139643  1.0
  O  O28  1  0.110357  0.389643  0.110357  1.0
  O  O29  1  0.389643  0.110357  0.110357  1.0
  O  O30  1  0.139643  0.139643  0.860357  1.0
  O  O31  1  0.389643  0.389643  0.389643  1.0
  O  O32  1  0.110357  0.610357  0.889643  1.0
  O  O33  1  0.360357  0.860357  0.360357  1.0
  O  O34  1  0.139643  0.360357  0.639643  1.0
  O  O35  1  0.360357  0.139643  0.639643  1.0
  O  O36  1  0.110357  0.889643  0.610357  1.0
  O  O37  1  0.389643  0.610357  0.610357  1.0
  O  O38  1  0.139643  0.639643  0.360357  1.0
  O  O39  1  0.389643  0.889643  0.889643  1.0
  O  O40  1  0.610357  0.110357  0.889643  1.0
  O  O41  1  0.860357  0.360357  0.360357  1.0
  O  O42  1  0.639643  0.860357  0.639643  1.0
  O  O43  1  0.860357  0.639643  0.639643  1.0
  O  O44  1  0.610357  0.389643  0.610357  1.0
  O  O45  1  0.889643  0.110357  0.610357  1.0
  O  O46  1  0.639643  0.139643  0.360357  1.0
  O  O47  1  0.889643  0.389643  0.889643  1.0
  O  O48  1  0.610357  0.610357  0.389643  1.0
  O  O49  1  0.860357  0.860357  0.860357  1.0
  O  O50  1  0.639643  0.360357  0.139643  1.0
  O  O51  1  0.860357  0.139643  0.139643  1.0
  O  O52  1  0.610357  0.889643  0.110357  1.0
  O  O53  1  0.889643  0.610357  0.110357  1.0
  O  O54  1  0.639643  0.639643  0.860357  1.0
  O  O55  1  0.889643  0.889643  0.389643  1.0
