# generated using pymatgen
data_Ba2LiO4
_symmetry_space_group_name_H-M   'P 1'
_cell_length_a   10.52237116
_cell_length_b   10.52237116
_cell_length_c   10.52237116
_cell_angle_alpha   90.00000000
_cell_angle_beta   90.00000000
_cell_angle_gamma   90.00000000
_symmetry_Int_Tables_number   1
_chemical_formula_structural   Ba2LiO4
_chemical_formula_sum   'Ba16 Li8 O32'
_cell_volume   1165.04003648
_cell_formula_units_Z   8
loop_
 _symmetry_equiv_pos_site_id
 _symmetry_equiv_pos_as_xyz
  1  'x, y, z'
loop_
 _atom_site_type_symbol
 _atom_site_label
 _atom_site_symmetry_multiplicity
 _atom_site_fract_x
 _atom_site_fract_y
 _atom_site_fract_z
 _atom_site_occupancy
  Ba  Ba0  1  0.125000  0.125000  0.625000  1.0
  Ba  Ba1  1  0.375000  0.375000  0.625000  1.0
  Ba  Ba2  1  0.125000  0.375000  0.875000  1.0
  Ba  Ba3  1  0.375000  0.125000  0.875000  1.0
  Ba  Ba4  1  0.125000  0.625000  0.125000  1.0
  Ba  Ba5  1  0.375000  0.875000  0.125000  1.0
  Ba  Ba6  1  0.125000  0.875000  0.375000  1.0
  Ba  Ba7  1  0.375000  0.625000  0.375000  1.0
  Ba  Ba8  1  0.625000  0.125000  0.125000  1.0
  Ba  Ba9  1  0.875000  0.375000  0.125000  1.0
  Ba  Ba10  1  0.625000  0.375000  0.375000  1.0
  Ba  Ba11  1  0.875000  0.125000  0.375000  1.0
  Ba  Ba12  1  0.625000  0.625000  0.625000  1.0
  Ba  Ba13  1  0.875000  0.875000  0.625000  1.0
  Ba  Ba14  1  0.625000  0.875000  0.875000  1.0
  Ba  Ba15  1  0.875000  0.625000  0.875000  1.0
  Li  Li16  1  0.500000  0.500000  0.000000  1.0
  Li  Li17  1  0.250000  0.250000  0.250000  1.0
  Li  Li18  1  0.500000  0.000000  0.500000  1.0
  Li  Li19  1  0.250000  0.750000  0.750000  1.0
  Li  Li20  1  0.000000  0.500000  0.500000  1.0
  Li  Li21  1  0.750000  0.250000  0.750000  1.0
  Li  Li22  1  0.000000  0.000000  0.000000  1.0
  Li  Li23  1  0.750000  0.750000  0.250000  1.0
  O  O24  1  0.124970  0.124970  0.375030  1.0
  O  O25  1  0.374970  0.374970  0.874970  1.0
  O  O26  1  0.125030  0.874970  0.125030  1.0
  O  O27  1  0.374970  0.625030  0.125030  1.0
  O  O28  1  0.124970  0.375030  0.124970  1.0
  O  O29  1  0.375030  0.124970  0.124970  1.0
  O  O30  1  0.125030  0.125030  0.874970  1.0
  O  O31  1  0.375030  0.375030  0.375030  1.0
  O  O32  1  0.124970  0.624970  0.875030  1.0
  O  O33  1  0.374970  0.874970  0.374970  1.0
  O  O34  1  0.125030  0.374970  0.625030  1.0
  O  O35  1  0.374970  0.125030  0.625030  1.0
  O  O36  1  0.124970  0.875030  0.624970  1.0
  O  O37  1  0.375030  0.624970  0.624970  1.0
  O  O38  1  0.125030  0.625030  0.374970  1.0
  O  O39  1  0.375030  0.875030  0.875030  1.0
  O  O40  1  0.624970  0.124970  0.875030  1.0
  O  O41  1  0.874970  0.374970  0.374970  1.0
  O  O42  1  0.625030  0.874970  0.625030  1.0
  O  O43  1  0.874970  0.625030  0.625030  1.0
  O  O44  1  0.624970  0.375030  0.624970  1.0
  O  O45  1  0.875030  0.124970  0.624970  1.0
  O  O46  1  0.625030  0.125030  0.374970  1.0
  O  O47  1  0.875030  0.375030  0.875030  1.0
  O  O48  1  0.624970  0.624970  0.375030  1.0
  O  O49  1  0.874970  0.874970  0.874970  1.0
  O  O50  1  0.625030  0.374970  0.125030  1.0
  O  O51  1  0.874970  0.125030  0.125030  1.0
  O  O52  1  0.624970  0.875030  0.124970  1.0
  O  O53  1  0.875030  0.624970  0.124970  1.0
  O  O54  1  0.625030  0.625030  0.874970  1.0
  O  O55  1  0.875030  0.875030  0.375030  1.0
