# generated using pymatgen
data_LiTb2O4
_symmetry_space_group_name_H-M   'P 1'
_cell_length_a   9.61560571
_cell_length_b   9.61560571
_cell_length_c   9.61560571
_cell_angle_alpha   90.00000000
_cell_angle_beta   90.00000000
_cell_angle_gamma   90.00000000
_symmetry_Int_Tables_number   1
_chemical_formula_structural   LiTb2O4
_chemical_formula_sum   'Li8 Tb16 O32'
_cell_volume   889.05768332
_cell_formula_units_Z   8
loop_
 _symmetry_equiv_pos_site_id
 _symmetry_equiv_pos_as_xyz
  1  'x, y, z'
loop_
 _atom_site_type_symbol
 _atom_site_label
 _atom_site_symmetry_multiplicity
 _atom_site_fract_x
 _atom_site_fract_y
 _atom_site_fract_z
 _atom_site_occupancy
  Li  Li0  1  0.500000  0.500000  0.000000  1.0
  Li  Li1  1  0.250000  0.250000  0.250000  1.0
  Li  Li2  1  0.500000  0.000000  0.500000  1.0
  Li  Li3  1  0.250000  0.750000  0.750000  1.0
  Li  Li4  1  0.000000  0.500000  0.500000  1.0
  Li  Li5  1  0.750000  0.250000  0.750000  1.0
  Li  Li6  1  0.000000  0.000000  0.000000  1.0
  Li  Li7  1  0.750000  0.750000  0.250000  1.0
  Tb  Tb8  1  0.125000  0.125000  0.625000  1.0
  Tb  Tb9  1  0.375000  0.375000  0.625000  1.0
  Tb  Tb10  1  0.125000  0.375000  0.875000  1.0
  Tb  Tb11  1  0.375000  0.125000  0.875000  1.0
  Tb  Tb12  1  0.125000  0.625000  0.125000  1.0
  Tb  Tb13  1  0.375000  0.875000  0.125000  1.0
  Tb  Tb14  1  0.125000  0.875000  0.375000  1.0
  Tb  Tb15  1  0.375000  0.625000  0.375000  1.0
  Tb  Tb16  1  0.625000  0.125000  0.125000  1.0
  Tb  Tb17  1  0.875000  0.375000  0.125000  1.0
  Tb  Tb18  1  0.625000  0.375000  0.375000  1.0
  Tb  Tb19  1  0.875000  0.125000  0.375000  1.0
  Tb  Tb20  1  0.625000  0.625000  0.625000  1.0
  Tb  Tb21  1  0.875000  0.875000  0.625000  1.0
  Tb  Tb22  1  0.625000  0.875000  0.875000  1.0
  Tb  Tb23  1  0.875000  0.625000  0.875000  1.0
  O  O24  1  0.112510  0.112510  0.387490  1.0
  O  O25  1  0.362510  0.362510  0.862510  1.0
  O  O26  1  0.137490  0.862510  0.137490  1.0
  O  O27  1  0.362510  0.637490  0.137490  1.0
  O  O28  1  0.112510  0.387490  0.112510  1.0
  O  O29  1  0.387490  0.112510  0.112510  1.0
  O  O30  1  0.137490  0.137490  0.862510  1.0
  O  O31  1  0.387490  0.387490  0.387490  1.0
  O  O32  1  0.112510  0.612510  0.887490  1.0
  O  O33  1  0.362510  0.862510  0.362510  1.0
  O  O34  1  0.137490  0.362510  0.637490  1.0
  O  O35  1  0.362510  0.137490  0.637490  1.0
  O  O36  1  0.112510  0.887490  0.612510  1.0
  O  O37  1  0.387490  0.612510  0.612510  1.0
  O  O38  1  0.137490  0.637490  0.362510  1.0
  O  O39  1  0.387490  0.887490  0.887490  1.0
  O  O40  1  0.612510  0.112510  0.887490  1.0
  O  O41  1  0.862510  0.362510  0.362510  1.0
  O  O42  1  0.637490  0.862510  0.637490  1.0
  O  O43  1  0.862510  0.637490  0.637490  1.0
  O  O44  1  0.612510  0.387490  0.612510  1.0
  O  O45  1  0.887490  0.112510  0.612510  1.0
  O  O46  1  0.637490  0.137490  0.362510  1.0
  O  O47  1  0.887490  0.387490  0.887490  1.0
  O  O48  1  0.612510  0.612510  0.387490  1.0
  O  O49  1  0.862510  0.862510  0.862510  1.0
  O  O50  1  0.637490  0.362510  0.137490  1.0
  O  O51  1  0.862510  0.137490  0.137490  1.0
  O  O52  1  0.612510  0.887490  0.112510  1.0
  O  O53  1  0.887490  0.612510  0.112510  1.0
  O  O54  1  0.637490  0.637490  0.862510  1.0
  O  O55  1  0.887490  0.887490  0.387490  1.0
