# generated using pymatgen
data_Lu3O4
_symmetry_space_group_name_H-M   'P 1'
_cell_length_a   9.35144475
_cell_length_b   9.35144475
_cell_length_c   9.35144475
_cell_angle_alpha   90.00000000
_cell_angle_beta   90.00000000
_cell_angle_gamma   90.00000000
_symmetry_Int_Tables_number   1
_chemical_formula_structural   Lu3O4
_chemical_formula_sum   'Lu24 O32'
_cell_volume   817.77934578
_cell_formula_units_Z   8
loop_
 _symmetry_equiv_pos_site_id
 _symmetry_equiv_pos_as_xyz
  1  'x, y, z'
loop_
 _atom_site_type_symbol
 _atom_site_label
 _atom_site_symmetry_multiplicity
 _atom_site_fract_x
 _atom_site_fract_y
 _atom_site_fract_z
 _atom_site_occupancy
  Lu  Lu1  1  0.250000  0.250000  0.250000  1.0
  Lu  Lu2  1  0.500000  0.500000  0.000000  1.0
  Lu  Lu3  1  0.375000  0.375000  0.625000  1.0
  Lu  Lu4  1  0.375000  0.125000  0.875000  1.0
  Lu  Lu5  1  0.125000  0.125000  0.625000  1.0
  Lu  Lu6  1  0.125000  0.375000  0.875000  1.0
  Lu  Lu7  1  0.250000  0.750000  0.750000  1.0
  Lu  Lu8  1  0.500000  0.000000  0.500000  1.0
  Lu  Lu9  1  0.375000  0.875000  0.125000  1.0
  Lu  Lu10  1  0.375000  0.625000  0.375000  1.0
  Lu  Lu11  1  0.125000  0.625000  0.125000  1.0
  Lu  Lu12  1  0.125000  0.875000  0.375000  1.0
  Lu  Lu13  1  0.750000  0.250000  0.750000  1.0
  Lu  Lu14  1  0.000000  0.500000  0.500000  1.0
  Lu  Lu15  1  0.875000  0.375000  0.125000  1.0
  Lu  Lu16  1  0.875000  0.125000  0.375000  1.0
  Lu  Lu17  1  0.625000  0.125000  0.125000  1.0
  Lu  Lu18  1  0.625000  0.375000  0.375000  1.0
  Lu  Lu19  1  0.750000  0.750000  0.250000  1.0
  Lu  Lu20  1  0.000000  0.000000  0.000000  1.0
  Lu  Lu21  1  0.875000  0.875000  0.625000  1.0
  Lu  Lu22  1  0.875000  0.625000  0.875000  1.0
  Lu  Lu23  1  0.625000  0.625000  0.625000  1.0
  Lu  Lu24  1  0.625000  0.875000  0.875000  1.0
  O  O25  1  0.365740  0.365740  0.865740  1.0
  O  O26  1  0.365740  0.634260  0.134260  1.0
  O  O27  1  0.134260  0.134260  0.865740  1.0
  O  O28  1  0.134260  0.865740  0.134260  1.0
  O  O29  1  0.384260  0.115740  0.115740  1.0
  O  O30  1  0.384260  0.384260  0.384260  1.0
  O  O31  1  0.115740  0.115740  0.384260  1.0
  O  O32  1  0.115740  0.384260  0.115740  1.0
  O  O33  1  0.365740  0.865740  0.365740  1.0
  O  O34  1  0.365740  0.134260  0.634260  1.0
  O  O35  1  0.134260  0.634260  0.365740  1.0
  O  O36  1  0.134260  0.365740  0.634260  1.0
  O  O37  1  0.384260  0.615740  0.615740  1.0
  O  O38  1  0.384260  0.884260  0.884260  1.0
  O  O39  1  0.115740  0.615740  0.884260  1.0
  O  O40  1  0.115740  0.884260  0.615740  1.0
  O  O41  1  0.865740  0.365740  0.365740  1.0
  O  O42  1  0.865740  0.634260  0.634260  1.0
  O  O43  1  0.634260  0.134260  0.365740  1.0
  O  O44  1  0.634260  0.865740  0.634260  1.0
  O  O45  1  0.884260  0.115740  0.615740  1.0
  O  O46  1  0.884260  0.384260  0.884260  1.0
  O  O47  1  0.615740  0.115740  0.884260  1.0
  O  O48  1  0.615740  0.384260  0.615740  1.0
  O  O49  1  0.865740  0.865740  0.865740  1.0
  O  O50  1  0.865740  0.134260  0.134260  1.0
  O  O51  1  0.634260  0.634260  0.865740  1.0
  O  O52  1  0.634260  0.365740  0.134260  1.0
  O  O53  1  0.884260  0.615740  0.115740  1.0
  O  O54  1  0.884260  0.884260  0.384260  1.0
  O  O55  1  0.615740  0.615740  0.384260  1.0
  O  O56  1  0.615740  0.884260  0.115740  1.0
