# generated using pymatgen
data_LuNp2O4
_symmetry_space_group_name_H-M   'P 1'
_cell_length_a   9.52949424
_cell_length_b   9.52949424
_cell_length_c   9.52949424
_cell_angle_alpha   90.00000000
_cell_angle_beta   90.00000000
_cell_angle_gamma   90.00000000
_symmetry_Int_Tables_number   1
_chemical_formula_structural   LuNp2O4
_chemical_formula_sum   'Lu8 Np16 O32'
_cell_volume   865.38538420
_cell_formula_units_Z   8
loop_
 _symmetry_equiv_pos_site_id
 _symmetry_equiv_pos_as_xyz
  1  'x, y, z'
loop_
 _atom_site_type_symbol
 _atom_site_label
 _atom_site_symmetry_multiplicity
 _atom_site_fract_x
 _atom_site_fract_y
 _atom_site_fract_z
 _atom_site_occupancy
  Lu  Lu0  1  0.500000  0.500000  0.000000  1.0
  Lu  Lu1  1  0.250000  0.250000  0.250000  1.0
  Lu  Lu2  1  0.500000  0.000000  0.500000  1.0
  Lu  Lu3  1  0.250000  0.750000  0.750000  1.0
  Lu  Lu4  1  0.000000  0.500000  0.500000  1.0
  Lu  Lu5  1  0.750000  0.250000  0.750000  1.0
  Lu  Lu6  1  0.000000  0.000000  0.000000  1.0
  Lu  Lu7  1  0.750000  0.750000  0.250000  1.0
  Np  Np8  1  0.125000  0.125000  0.625000  1.0
  Np  Np9  1  0.375000  0.375000  0.625000  1.0
  Np  Np10  1  0.125000  0.375000  0.875000  1.0
  Np  Np11  1  0.375000  0.125000  0.875000  1.0
  Np  Np12  1  0.125000  0.625000  0.125000  1.0
  Np  Np13  1  0.375000  0.875000  0.125000  1.0
  Np  Np14  1  0.125000  0.875000  0.375000  1.0
  Np  Np15  1  0.375000  0.625000  0.375000  1.0
  Np  Np16  1  0.625000  0.125000  0.125000  1.0
  Np  Np17  1  0.875000  0.375000  0.125000  1.0
  Np  Np18  1  0.625000  0.375000  0.375000  1.0
  Np  Np19  1  0.875000  0.125000  0.375000  1.0
  Np  Np20  1  0.625000  0.625000  0.625000  1.0
  Np  Np21  1  0.875000  0.875000  0.625000  1.0
  Np  Np22  1  0.625000  0.875000  0.875000  1.0
  Np  Np23  1  0.875000  0.625000  0.875000  1.0
  O  O24  1  0.123427  0.123427  0.376573  1.0
  O  O25  1  0.373427  0.373427  0.873427  1.0
  O  O26  1  0.126573  0.873427  0.126573  1.0
  O  O27  1  0.373427  0.626573  0.126573  1.0
  O  O28  1  0.123427  0.376573  0.123427  1.0
  O  O29  1  0.376573  0.123427  0.123427  1.0
  O  O30  1  0.126573  0.126573  0.873427  1.0
  O  O31  1  0.376573  0.376573  0.376573  1.0
  O  O32  1  0.123427  0.623427  0.876573  1.0
  O  O33  1  0.373427  0.873427  0.373427  1.0
  O  O34  1  0.126573  0.373427  0.626573  1.0
  O  O35  1  0.373427  0.126573  0.626573  1.0
  O  O36  1  0.123427  0.876573  0.623427  1.0
  O  O37  1  0.376573  0.623427  0.623427  1.0
  O  O38  1  0.126573  0.626573  0.373427  1.0
  O  O39  1  0.376573  0.876573  0.876573  1.0
  O  O40  1  0.623427  0.123427  0.876573  1.0
  O  O41  1  0.873427  0.373427  0.373427  1.0
  O  O42  1  0.626573  0.873427  0.626573  1.0
  O  O43  1  0.873427  0.626573  0.626573  1.0
  O  O44  1  0.623427  0.376573  0.623427  1.0
  O  O45  1  0.876573  0.123427  0.623427  1.0
  O  O46  1  0.626573  0.126573  0.373427  1.0
  O  O47  1  0.876573  0.376573  0.876573  1.0
  O  O48  1  0.623427  0.623427  0.376573  1.0
  O  O49  1  0.873427  0.873427  0.873427  1.0
  O  O50  1  0.626573  0.373427  0.126573  1.0
  O  O51  1  0.873427  0.126573  0.126573  1.0
  O  O52  1  0.623427  0.876573  0.123427  1.0
  O  O53  1  0.876573  0.623427  0.123427  1.0
  O  O54  1  0.626573  0.626573  0.873427  1.0
  O  O55  1  0.876573  0.876573  0.376573  1.0
