# generated using pymatgen
data_LuV2O4
_symmetry_space_group_name_H-M   'P 1'
_cell_length_a   8.75801246
_cell_length_b   8.75801246
_cell_length_c   8.75801246
_cell_angle_alpha   90.00000000
_cell_angle_beta   90.00000000
_cell_angle_gamma   90.00000000
_symmetry_Int_Tables_number   1
_chemical_formula_structural   LuV2O4
_chemical_formula_sum   'Lu8 V16 O32'
_cell_volume   671.76392260
_cell_formula_units_Z   8
loop_
 _symmetry_equiv_pos_site_id
 _symmetry_equiv_pos_as_xyz
  1  'x, y, z'
loop_
 _atom_site_type_symbol
 _atom_site_label
 _atom_site_symmetry_multiplicity
 _atom_site_fract_x
 _atom_site_fract_y
 _atom_site_fract_z
 _atom_site_occupancy
  Lu  Lu0  1  0.500000  0.500000  0.000000  1.0
  Lu  Lu1  1  0.250000  0.250000  0.250000  1.0
  Lu  Lu2  1  0.500000  0.000000  0.500000  1.0
  Lu  Lu3  1  0.250000  0.750000  0.750000  1.0
  Lu  Lu4  1  0.000000  0.500000  0.500000  1.0
  Lu  Lu5  1  0.750000  0.250000  0.750000  1.0
  Lu  Lu6  1  0.000000  0.000000  0.000000  1.0
  Lu  Lu7  1  0.750000  0.750000  0.250000  1.0
  V  V8  1  0.125000  0.125000  0.625000  1.0
  V  V9  1  0.375000  0.375000  0.625000  1.0
  V  V10  1  0.125000  0.375000  0.875000  1.0
  V  V11  1  0.375000  0.125000  0.875000  1.0
  V  V12  1  0.125000  0.625000  0.125000  1.0
  V  V13  1  0.375000  0.875000  0.125000  1.0
  V  V14  1  0.125000  0.875000  0.375000  1.0
  V  V15  1  0.375000  0.625000  0.375000  1.0
  V  V16  1  0.625000  0.125000  0.125000  1.0
  V  V17  1  0.875000  0.375000  0.125000  1.0
  V  V18  1  0.625000  0.375000  0.375000  1.0
  V  V19  1  0.875000  0.125000  0.375000  1.0
  V  V20  1  0.625000  0.625000  0.625000  1.0
  V  V21  1  0.875000  0.875000  0.625000  1.0
  V  V22  1  0.625000  0.875000  0.875000  1.0
  V  V23  1  0.875000  0.625000  0.875000  1.0
  O  O24  1  0.113050  0.113050  0.386950  1.0
  O  O25  1  0.363050  0.363050  0.863050  1.0
  O  O26  1  0.136950  0.863050  0.136950  1.0
  O  O27  1  0.363050  0.636950  0.136950  1.0
  O  O28  1  0.113050  0.386950  0.113050  1.0
  O  O29  1  0.386950  0.113050  0.113050  1.0
  O  O30  1  0.136950  0.136950  0.863050  1.0
  O  O31  1  0.386950  0.386950  0.386950  1.0
  O  O32  1  0.113050  0.613050  0.886950  1.0
  O  O33  1  0.363050  0.863050  0.363050  1.0
  O  O34  1  0.136950  0.363050  0.636950  1.0
  O  O35  1  0.363050  0.136950  0.636950  1.0
  O  O36  1  0.113050  0.886950  0.613050  1.0
  O  O37  1  0.386950  0.613050  0.613050  1.0
  O  O38  1  0.136950  0.636950  0.363050  1.0
  O  O39  1  0.386950  0.886950  0.886950  1.0
  O  O40  1  0.613050  0.113050  0.886950  1.0
  O  O41  1  0.863050  0.363050  0.363050  1.0
  O  O42  1  0.636950  0.863050  0.636950  1.0
  O  O43  1  0.863050  0.636950  0.636950  1.0
  O  O44  1  0.613050  0.386950  0.613050  1.0
  O  O45  1  0.886950  0.113050  0.613050  1.0
  O  O46  1  0.636950  0.136950  0.363050  1.0
  O  O47  1  0.886950  0.386950  0.886950  1.0
  O  O48  1  0.613050  0.613050  0.386950  1.0
  O  O49  1  0.863050  0.863050  0.863050  1.0
  O  O50  1  0.636950  0.363050  0.136950  1.0
  O  O51  1  0.863050  0.136950  0.136950  1.0
  O  O52  1  0.613050  0.886950  0.113050  1.0
  O  O53  1  0.886950  0.613050  0.113050  1.0
  O  O54  1  0.636950  0.636950  0.863050  1.0
  O  O55  1  0.886950  0.886950  0.386950  1.0
