# generated using pymatgen
data_Mn(HgO2)2
_symmetry_space_group_name_H-M   'P 1'
_cell_length_a   9.27946128
_cell_length_b   9.27946128
_cell_length_c   9.27946128
_cell_angle_alpha   90.00000000
_cell_angle_beta   90.00000000
_cell_angle_gamma   90.00000000
_symmetry_Int_Tables_number   1
_chemical_formula_structural   Mn(HgO2)2
_chemical_formula_sum   'Mn8 Hg16 O32'
_cell_volume   799.03958012
_cell_formula_units_Z   8
loop_
 _symmetry_equiv_pos_site_id
 _symmetry_equiv_pos_as_xyz
  1  'x, y, z'
loop_
 _atom_site_type_symbol
 _atom_site_label
 _atom_site_symmetry_multiplicity
 _atom_site_fract_x
 _atom_site_fract_y
 _atom_site_fract_z
 _atom_site_occupancy
  Mn  Mn0  1  0.500000  0.500000  0.000000  1.0
  Mn  Mn1  1  0.250000  0.250000  0.250000  1.0
  Mn  Mn2  1  0.500000  0.000000  0.500000  1.0
  Mn  Mn3  1  0.250000  0.750000  0.750000  1.0
  Mn  Mn4  1  0.000000  0.500000  0.500000  1.0
  Mn  Mn5  1  0.750000  0.250000  0.750000  1.0
  Mn  Mn6  1  0.000000  0.000000  0.000000  1.0
  Mn  Mn7  1  0.750000  0.750000  0.250000  1.0
  Hg  Hg8  1  0.125000  0.125000  0.625000  1.0
  Hg  Hg9  1  0.375000  0.375000  0.625000  1.0
  Hg  Hg10  1  0.125000  0.375000  0.875000  1.0
  Hg  Hg11  1  0.375000  0.125000  0.875000  1.0
  Hg  Hg12  1  0.125000  0.625000  0.125000  1.0
  Hg  Hg13  1  0.375000  0.875000  0.125000  1.0
  Hg  Hg14  1  0.125000  0.875000  0.375000  1.0
  Hg  Hg15  1  0.375000  0.625000  0.375000  1.0
  Hg  Hg16  1  0.625000  0.125000  0.125000  1.0
  Hg  Hg17  1  0.875000  0.375000  0.125000  1.0
  Hg  Hg18  1  0.625000  0.375000  0.375000  1.0
  Hg  Hg19  1  0.875000  0.125000  0.375000  1.0
  Hg  Hg20  1  0.625000  0.625000  0.625000  1.0
  Hg  Hg21  1  0.875000  0.875000  0.625000  1.0
  Hg  Hg22  1  0.625000  0.875000  0.875000  1.0
  Hg  Hg23  1  0.875000  0.625000  0.875000  1.0
  O  O24  1  0.146213  0.146213  0.353787  1.0
  O  O25  1  0.396213  0.396213  0.896213  1.0
  O  O26  1  0.103787  0.896213  0.103787  1.0
  O  O27  1  0.396213  0.603787  0.103787  1.0
  O  O28  1  0.146213  0.353787  0.146213  1.0
  O  O29  1  0.353787  0.146213  0.146213  1.0
  O  O30  1  0.103787  0.103787  0.896213  1.0
  O  O31  1  0.353787  0.353787  0.353787  1.0
  O  O32  1  0.146213  0.646213  0.853787  1.0
  O  O33  1  0.396213  0.896213  0.396213  1.0
  O  O34  1  0.103787  0.396213  0.603787  1.0
  O  O35  1  0.396213  0.103787  0.603787  1.0
  O  O36  1  0.146213  0.853787  0.646213  1.0
  O  O37  1  0.353787  0.646213  0.646213  1.0
  O  O38  1  0.103787  0.603787  0.396213  1.0
  O  O39  1  0.353787  0.853787  0.853787  1.0
  O  O40  1  0.646213  0.146213  0.853787  1.0
  O  O41  1  0.896213  0.396213  0.396213  1.0
  O  O42  1  0.603787  0.896213  0.603787  1.0
  O  O43  1  0.896213  0.603787  0.603787  1.0
  O  O44  1  0.646213  0.353787  0.646213  1.0
  O  O45  1  0.853787  0.146213  0.646213  1.0
  O  O46  1  0.603787  0.103787  0.396213  1.0
  O  O47  1  0.853787  0.353787  0.853787  1.0
  O  O48  1  0.646213  0.646213  0.353787  1.0
  O  O49  1  0.896213  0.896213  0.896213  1.0
  O  O50  1  0.603787  0.396213  0.103787  1.0
  O  O51  1  0.896213  0.103787  0.103787  1.0
  O  O52  1  0.646213  0.853787  0.146213  1.0
  O  O53  1  0.853787  0.646213  0.146213  1.0
  O  O54  1  0.603787  0.603787  0.896213  1.0
  O  O55  1  0.853787  0.853787  0.353787  1.0
