# generated using pymatgen
data_Bi2MoO4
_symmetry_space_group_name_H-M   'P 1'
_cell_length_a   9.77855139
_cell_length_b   9.77855139
_cell_length_c   9.77855139
_cell_angle_alpha   90.00000000
_cell_angle_beta   90.00000000
_cell_angle_gamma   90.00000000
_symmetry_Int_Tables_number   1
_chemical_formula_structural   Bi2MoO4
_chemical_formula_sum   'Bi16 Mo8 O32'
_cell_volume   935.02574267
_cell_formula_units_Z   8
loop_
 _symmetry_equiv_pos_site_id
 _symmetry_equiv_pos_as_xyz
  1  'x, y, z'
loop_
 _atom_site_type_symbol
 _atom_site_label
 _atom_site_symmetry_multiplicity
 _atom_site_fract_x
 _atom_site_fract_y
 _atom_site_fract_z
 _atom_site_occupancy
  Bi  Bi0  1  0.125000  0.125000  0.625000  1.0
  Bi  Bi1  1  0.375000  0.375000  0.625000  1.0
  Bi  Bi2  1  0.125000  0.375000  0.875000  1.0
  Bi  Bi3  1  0.375000  0.125000  0.875000  1.0
  Bi  Bi4  1  0.125000  0.625000  0.125000  1.0
  Bi  Bi5  1  0.375000  0.875000  0.125000  1.0
  Bi  Bi6  1  0.125000  0.875000  0.375000  1.0
  Bi  Bi7  1  0.375000  0.625000  0.375000  1.0
  Bi  Bi8  1  0.625000  0.125000  0.125000  1.0
  Bi  Bi9  1  0.875000  0.375000  0.125000  1.0
  Bi  Bi10  1  0.625000  0.375000  0.375000  1.0
  Bi  Bi11  1  0.875000  0.125000  0.375000  1.0
  Bi  Bi12  1  0.625000  0.625000  0.625000  1.0
  Bi  Bi13  1  0.875000  0.875000  0.625000  1.0
  Bi  Bi14  1  0.625000  0.875000  0.875000  1.0
  Bi  Bi15  1  0.875000  0.625000  0.875000  1.0
  Mo  Mo16  1  0.500000  0.500000  0.000000  1.0
  Mo  Mo17  1  0.250000  0.250000  0.250000  1.0
  Mo  Mo18  1  0.500000  0.000000  0.500000  1.0
  Mo  Mo19  1  0.250000  0.750000  0.750000  1.0
  Mo  Mo20  1  0.000000  0.500000  0.500000  1.0
  Mo  Mo21  1  0.750000  0.250000  0.750000  1.0
  Mo  Mo22  1  0.000000  0.000000  0.000000  1.0
  Mo  Mo23  1  0.750000  0.750000  0.250000  1.0
  O  O24  1  0.144350  0.144350  0.355650  1.0
  O  O25  1  0.394350  0.394350  0.894350  1.0
  O  O26  1  0.105650  0.894350  0.105650  1.0
  O  O27  1  0.394350  0.605650  0.105650  1.0
  O  O28  1  0.144350  0.355650  0.144350  1.0
  O  O29  1  0.355650  0.144350  0.144350  1.0
  O  O30  1  0.105650  0.105650  0.894350  1.0
  O  O31  1  0.355650  0.355650  0.355650  1.0
  O  O32  1  0.144350  0.644350  0.855650  1.0
  O  O33  1  0.394350  0.894350  0.394350  1.0
  O  O34  1  0.105650  0.394350  0.605650  1.0
  O  O35  1  0.394350  0.105650  0.605650  1.0
  O  O36  1  0.144350  0.855650  0.644350  1.0
  O  O37  1  0.355650  0.644350  0.644350  1.0
  O  O38  1  0.105650  0.605650  0.394350  1.0
  O  O39  1  0.355650  0.855650  0.855650  1.0
  O  O40  1  0.644350  0.144350  0.855650  1.0
  O  O41  1  0.894350  0.394350  0.394350  1.0
  O  O42  1  0.605650  0.894350  0.605650  1.0
  O  O43  1  0.894350  0.605650  0.605650  1.0
  O  O44  1  0.644350  0.355650  0.644350  1.0
  O  O45  1  0.855650  0.144350  0.644350  1.0
  O  O46  1  0.605650  0.105650  0.394350  1.0
  O  O47  1  0.855650  0.355650  0.855650  1.0
  O  O48  1  0.644350  0.644350  0.355650  1.0
  O  O49  1  0.894350  0.894350  0.894350  1.0
  O  O50  1  0.605650  0.394350  0.105650  1.0
  O  O51  1  0.894350  0.105650  0.105650  1.0
  O  O52  1  0.644350  0.855650  0.144350  1.0
  O  O53  1  0.855650  0.644350  0.144350  1.0
  O  O54  1  0.605650  0.605650  0.894350  1.0
  O  O55  1  0.855650  0.855650  0.355650  1.0
