# generated using pymatgen
data_In2MoO4
_symmetry_space_group_name_H-M   'P 1'
_cell_length_a   10.10751161
_cell_length_b   10.10751161
_cell_length_c   10.10751161
_cell_angle_alpha   90.00000000
_cell_angle_beta   90.00000000
_cell_angle_gamma   90.00000000
_symmetry_Int_Tables_number   1
_chemical_formula_structural   In2MoO4
_chemical_formula_sum   'In16 Mo8 O32'
_cell_volume   1032.60148794
_cell_formula_units_Z   8
loop_
 _symmetry_equiv_pos_site_id
 _symmetry_equiv_pos_as_xyz
  1  'x, y, z'
loop_
 _atom_site_type_symbol
 _atom_site_label
 _atom_site_symmetry_multiplicity
 _atom_site_fract_x
 _atom_site_fract_y
 _atom_site_fract_z
 _atom_site_occupancy
  In  In0  1  0.125000  0.125000  0.625000  1.0
  In  In1  1  0.375000  0.375000  0.625000  1.0
  In  In2  1  0.125000  0.375000  0.875000  1.0
  In  In3  1  0.375000  0.125000  0.875000  1.0
  In  In4  1  0.125000  0.625000  0.125000  1.0
  In  In5  1  0.375000  0.875000  0.125000  1.0
  In  In6  1  0.125000  0.875000  0.375000  1.0
  In  In7  1  0.375000  0.625000  0.375000  1.0
  In  In8  1  0.625000  0.125000  0.125000  1.0
  In  In9  1  0.875000  0.375000  0.125000  1.0
  In  In10  1  0.625000  0.375000  0.375000  1.0
  In  In11  1  0.875000  0.125000  0.375000  1.0
  In  In12  1  0.625000  0.625000  0.625000  1.0
  In  In13  1  0.875000  0.875000  0.625000  1.0
  In  In14  1  0.625000  0.875000  0.875000  1.0
  In  In15  1  0.875000  0.625000  0.875000  1.0
  Mo  Mo16  1  0.500000  0.500000  0.000000  1.0
  Mo  Mo17  1  0.250000  0.250000  0.250000  1.0
  Mo  Mo18  1  0.500000  0.000000  0.500000  1.0
  Mo  Mo19  1  0.250000  0.750000  0.750000  1.0
  Mo  Mo20  1  0.000000  0.500000  0.500000  1.0
  Mo  Mo21  1  0.750000  0.250000  0.750000  1.0
  Mo  Mo22  1  0.000000  0.000000  0.000000  1.0
  Mo  Mo23  1  0.750000  0.750000  0.250000  1.0
  O  O24  1  0.147877  0.147877  0.352123  1.0
  O  O25  1  0.397877  0.397877  0.897877  1.0
  O  O26  1  0.102123  0.897877  0.102123  1.0
  O  O27  1  0.397877  0.602123  0.102123  1.0
  O  O28  1  0.147877  0.352123  0.147877  1.0
  O  O29  1  0.352123  0.147877  0.147877  1.0
  O  O30  1  0.102123  0.102123  0.897877  1.0
  O  O31  1  0.352123  0.352123  0.352123  1.0
  O  O32  1  0.147877  0.647877  0.852123  1.0
  O  O33  1  0.397877  0.897877  0.397877  1.0
  O  O34  1  0.102123  0.397877  0.602123  1.0
  O  O35  1  0.397877  0.102123  0.602123  1.0
  O  O36  1  0.147877  0.852123  0.647877  1.0
  O  O37  1  0.352123  0.647877  0.647877  1.0
  O  O38  1  0.102123  0.602123  0.397877  1.0
  O  O39  1  0.352123  0.852123  0.852123  1.0
  O  O40  1  0.647877  0.147877  0.852123  1.0
  O  O41  1  0.897877  0.397877  0.397877  1.0
  O  O42  1  0.602123  0.897877  0.602123  1.0
  O  O43  1  0.897877  0.602123  0.602123  1.0
  O  O44  1  0.647877  0.352123  0.647877  1.0
  O  O45  1  0.852123  0.147877  0.647877  1.0
  O  O46  1  0.602123  0.102123  0.397877  1.0
  O  O47  1  0.852123  0.352123  0.852123  1.0
  O  O48  1  0.647877  0.647877  0.352123  1.0
  O  O49  1  0.897877  0.897877  0.897877  1.0
  O  O50  1  0.602123  0.397877  0.102123  1.0
  O  O51  1  0.897877  0.102123  0.102123  1.0
  O  O52  1  0.647877  0.852123  0.147877  1.0
  O  O53  1  0.852123  0.647877  0.147877  1.0
  O  O54  1  0.602123  0.602123  0.897877  1.0
  O  O55  1  0.852123  0.852123  0.352123  1.0
