# generated using pymatgen
data_NaCa2O4
_symmetry_space_group_name_H-M   'P 1'
_cell_length_a   9.50563646
_cell_length_b   9.50563646
_cell_length_c   9.50563646
_cell_angle_alpha   90.00000000
_cell_angle_beta   90.00000000
_cell_angle_gamma   90.00000000
_symmetry_Int_Tables_number   1
_chemical_formula_structural   NaCa2O4
_chemical_formula_sum   'Na8 Ca16 O32'
_cell_volume   858.90197702
_cell_formula_units_Z   8
loop_
 _symmetry_equiv_pos_site_id
 _symmetry_equiv_pos_as_xyz
  1  'x, y, z'
loop_
 _atom_site_type_symbol
 _atom_site_label
 _atom_site_symmetry_multiplicity
 _atom_site_fract_x
 _atom_site_fract_y
 _atom_site_fract_z
 _atom_site_occupancy
  Na  Na0  1  0.500000  0.500000  0.000000  1.0
  Na  Na1  1  0.250000  0.250000  0.250000  1.0
  Na  Na2  1  0.500000  0.000000  0.500000  1.0
  Na  Na3  1  0.250000  0.750000  0.750000  1.0
  Na  Na4  1  0.000000  0.500000  0.500000  1.0
  Na  Na5  1  0.750000  0.250000  0.750000  1.0
  Na  Na6  1  0.000000  0.000000  0.000000  1.0
  Na  Na7  1  0.750000  0.750000  0.250000  1.0
  Ca  Ca8  1  0.125000  0.125000  0.625000  1.0
  Ca  Ca9  1  0.375000  0.375000  0.625000  1.0
  Ca  Ca10  1  0.125000  0.375000  0.875000  1.0
  Ca  Ca11  1  0.375000  0.125000  0.875000  1.0
  Ca  Ca12  1  0.125000  0.625000  0.125000  1.0
  Ca  Ca13  1  0.375000  0.875000  0.125000  1.0
  Ca  Ca14  1  0.125000  0.875000  0.375000  1.0
  Ca  Ca15  1  0.375000  0.625000  0.375000  1.0
  Ca  Ca16  1  0.625000  0.125000  0.125000  1.0
  Ca  Ca17  1  0.875000  0.375000  0.125000  1.0
  Ca  Ca18  1  0.625000  0.375000  0.375000  1.0
  Ca  Ca19  1  0.875000  0.125000  0.375000  1.0
  Ca  Ca20  1  0.625000  0.625000  0.625000  1.0
  Ca  Ca21  1  0.875000  0.875000  0.625000  1.0
  Ca  Ca22  1  0.625000  0.875000  0.875000  1.0
  Ca  Ca23  1  0.875000  0.625000  0.875000  1.0
  O  O24  1  0.113300  0.113300  0.386700  1.0
  O  O25  1  0.363300  0.363300  0.863300  1.0
  O  O26  1  0.136700  0.863300  0.136700  1.0
  O  O27  1  0.363300  0.636700  0.136700  1.0
  O  O28  1  0.113300  0.386700  0.113300  1.0
  O  O29  1  0.386700  0.113300  0.113300  1.0
  O  O30  1  0.136700  0.136700  0.863300  1.0
  O  O31  1  0.386700  0.386700  0.386700  1.0
  O  O32  1  0.113300  0.613300  0.886700  1.0
  O  O33  1  0.363300  0.863300  0.363300  1.0
  O  O34  1  0.136700  0.363300  0.636700  1.0
  O  O35  1  0.363300  0.136700  0.636700  1.0
  O  O36  1  0.113300  0.886700  0.613300  1.0
  O  O37  1  0.386700  0.613300  0.613300  1.0
  O  O38  1  0.136700  0.636700  0.363300  1.0
  O  O39  1  0.386700  0.886700  0.886700  1.0
  O  O40  1  0.613300  0.113300  0.886700  1.0
  O  O41  1  0.863300  0.363300  0.363300  1.0
  O  O42  1  0.636700  0.863300  0.636700  1.0
  O  O43  1  0.863300  0.636700  0.636700  1.0
  O  O44  1  0.613300  0.386700  0.613300  1.0
  O  O45  1  0.886700  0.113300  0.613300  1.0
  O  O46  1  0.636700  0.136700  0.363300  1.0
  O  O47  1  0.886700  0.386700  0.886700  1.0
  O  O48  1  0.613300  0.613300  0.386700  1.0
  O  O49  1  0.863300  0.863300  0.863300  1.0
  O  O50  1  0.636700  0.363300  0.136700  1.0
  O  O51  1  0.863300  0.136700  0.136700  1.0
  O  O52  1  0.613300  0.886700  0.113300  1.0
  O  O53  1  0.886700  0.613300  0.113300  1.0
  O  O54  1  0.636700  0.636700  0.863300  1.0
  O  O55  1  0.886700  0.886700  0.386700  1.0
