# generated using pymatgen
data_NaHo2O4
_symmetry_space_group_name_H-M   'P 1'
_cell_length_a   9.47972807
_cell_length_b   9.47972807
_cell_length_c   9.47972807
_cell_angle_alpha   90.00000000
_cell_angle_beta   90.00000000
_cell_angle_gamma   90.00000000
_symmetry_Int_Tables_number   1
_chemical_formula_structural   NaHo2O4
_chemical_formula_sum   'Na8 Ho16 O32'
_cell_volume   851.89807793
_cell_formula_units_Z   8
loop_
 _symmetry_equiv_pos_site_id
 _symmetry_equiv_pos_as_xyz
  1  'x, y, z'
loop_
 _atom_site_type_symbol
 _atom_site_label
 _atom_site_symmetry_multiplicity
 _atom_site_fract_x
 _atom_site_fract_y
 _atom_site_fract_z
 _atom_site_occupancy
  Na  Na0  1  0.500000  0.500000  0.000000  1.0
  Na  Na1  1  0.250000  0.250000  0.250000  1.0
  Na  Na2  1  0.500000  0.000000  0.500000  1.0
  Na  Na3  1  0.250000  0.750000  0.750000  1.0
  Na  Na4  1  0.000000  0.500000  0.500000  1.0
  Na  Na5  1  0.750000  0.250000  0.750000  1.0
  Na  Na6  1  0.000000  0.000000  0.000000  1.0
  Na  Na7  1  0.750000  0.750000  0.250000  1.0
  Ho  Ho8  1  0.125000  0.125000  0.625000  1.0
  Ho  Ho9  1  0.375000  0.375000  0.625000  1.0
  Ho  Ho10  1  0.125000  0.375000  0.875000  1.0
  Ho  Ho11  1  0.375000  0.125000  0.875000  1.0
  Ho  Ho12  1  0.125000  0.625000  0.125000  1.0
  Ho  Ho13  1  0.375000  0.875000  0.125000  1.0
  Ho  Ho14  1  0.125000  0.875000  0.375000  1.0
  Ho  Ho15  1  0.375000  0.625000  0.375000  1.0
  Ho  Ho16  1  0.625000  0.125000  0.125000  1.0
  Ho  Ho17  1  0.875000  0.375000  0.125000  1.0
  Ho  Ho18  1  0.625000  0.375000  0.375000  1.0
  Ho  Ho19  1  0.875000  0.125000  0.375000  1.0
  Ho  Ho20  1  0.625000  0.625000  0.625000  1.0
  Ho  Ho21  1  0.875000  0.875000  0.625000  1.0
  Ho  Ho22  1  0.625000  0.875000  0.875000  1.0
  Ho  Ho23  1  0.875000  0.625000  0.875000  1.0
  O  O24  1  0.109770  0.109770  0.390230  1.0
  O  O25  1  0.359770  0.359770  0.859770  1.0
  O  O26  1  0.140230  0.859770  0.140230  1.0
  O  O27  1  0.359770  0.640230  0.140230  1.0
  O  O28  1  0.109770  0.390230  0.109770  1.0
  O  O29  1  0.390230  0.109770  0.109770  1.0
  O  O30  1  0.140230  0.140230  0.859770  1.0
  O  O31  1  0.390230  0.390230  0.390230  1.0
  O  O32  1  0.109770  0.609770  0.890230  1.0
  O  O33  1  0.359770  0.859770  0.359770  1.0
  O  O34  1  0.140230  0.359770  0.640230  1.0
  O  O35  1  0.359770  0.140230  0.640230  1.0
  O  O36  1  0.109770  0.890230  0.609770  1.0
  O  O37  1  0.390230  0.609770  0.609770  1.0
  O  O38  1  0.140230  0.640230  0.359770  1.0
  O  O39  1  0.390230  0.890230  0.890230  1.0
  O  O40  1  0.609770  0.109770  0.890230  1.0
  O  O41  1  0.859770  0.359770  0.359770  1.0
  O  O42  1  0.640230  0.859770  0.640230  1.0
  O  O43  1  0.859770  0.640230  0.640230  1.0
  O  O44  1  0.609770  0.390230  0.609770  1.0
  O  O45  1  0.890230  0.109770  0.609770  1.0
  O  O46  1  0.640230  0.140230  0.359770  1.0
  O  O47  1  0.890230  0.390230  0.890230  1.0
  O  O48  1  0.609770  0.609770  0.390230  1.0
  O  O49  1  0.859770  0.859770  0.859770  1.0
  O  O50  1  0.640230  0.359770  0.140230  1.0
  O  O51  1  0.859770  0.140230  0.140230  1.0
  O  O52  1  0.609770  0.890230  0.109770  1.0
  O  O53  1  0.890230  0.609770  0.109770  1.0
  O  O54  1  0.640230  0.640230  0.859770  1.0
  O  O55  1  0.890230  0.890230  0.390230  1.0
