# generated using pymatgen
data_Nb(AuO2)2
_symmetry_space_group_name_H-M   'P 1'
_cell_length_a   9.28035224
_cell_length_b   9.28035224
_cell_length_c   9.28035224
_cell_angle_alpha   90.00000000
_cell_angle_beta   90.00000000
_cell_angle_gamma   90.00000000
_symmetry_Int_Tables_number   1
_chemical_formula_structural   Nb(AuO2)2
_chemical_formula_sum   'Nb8 Au16 O32'
_cell_volume   799.26975823
_cell_formula_units_Z   8
loop_
 _symmetry_equiv_pos_site_id
 _symmetry_equiv_pos_as_xyz
  1  'x, y, z'
loop_
 _atom_site_type_symbol
 _atom_site_label
 _atom_site_symmetry_multiplicity
 _atom_site_fract_x
 _atom_site_fract_y
 _atom_site_fract_z
 _atom_site_occupancy
  Nb  Nb0  1  0.500000  0.500000  0.000000  1.0
  Nb  Nb1  1  0.250000  0.250000  0.250000  1.0
  Nb  Nb2  1  0.500000  0.000000  0.500000  1.0
  Nb  Nb3  1  0.250000  0.750000  0.750000  1.0
  Nb  Nb4  1  0.000000  0.500000  0.500000  1.0
  Nb  Nb5  1  0.750000  0.250000  0.750000  1.0
  Nb  Nb6  1  0.000000  0.000000  0.000000  1.0
  Nb  Nb7  1  0.750000  0.750000  0.250000  1.0
  Au  Au8  1  0.125000  0.125000  0.625000  1.0
  Au  Au9  1  0.375000  0.375000  0.625000  1.0
  Au  Au10  1  0.125000  0.375000  0.875000  1.0
  Au  Au11  1  0.375000  0.125000  0.875000  1.0
  Au  Au12  1  0.125000  0.625000  0.125000  1.0
  Au  Au13  1  0.375000  0.875000  0.125000  1.0
  Au  Au14  1  0.125000  0.875000  0.375000  1.0
  Au  Au15  1  0.375000  0.625000  0.375000  1.0
  Au  Au16  1  0.625000  0.125000  0.125000  1.0
  Au  Au17  1  0.875000  0.375000  0.125000  1.0
  Au  Au18  1  0.625000  0.375000  0.375000  1.0
  Au  Au19  1  0.875000  0.125000  0.375000  1.0
  Au  Au20  1  0.625000  0.625000  0.625000  1.0
  Au  Au21  1  0.875000  0.875000  0.625000  1.0
  Au  Au22  1  0.625000  0.875000  0.875000  1.0
  Au  Au23  1  0.875000  0.625000  0.875000  1.0
  O  O24  1  0.133990  0.133990  0.366010  1.0
  O  O25  1  0.383990  0.383990  0.883990  1.0
  O  O26  1  0.116010  0.883990  0.116010  1.0
  O  O27  1  0.383990  0.616010  0.116010  1.0
  O  O28  1  0.133990  0.366010  0.133990  1.0
  O  O29  1  0.366010  0.133990  0.133990  1.0
  O  O30  1  0.116010  0.116010  0.883990  1.0
  O  O31  1  0.366010  0.366010  0.366010  1.0
  O  O32  1  0.133990  0.633990  0.866010  1.0
  O  O33  1  0.383990  0.883990  0.383990  1.0
  O  O34  1  0.116010  0.383990  0.616010  1.0
  O  O35  1  0.383990  0.116010  0.616010  1.0
  O  O36  1  0.133990  0.866010  0.633990  1.0
  O  O37  1  0.366010  0.633990  0.633990  1.0
  O  O38  1  0.116010  0.616010  0.383990  1.0
  O  O39  1  0.366010  0.866010  0.866010  1.0
  O  O40  1  0.633990  0.133990  0.866010  1.0
  O  O41  1  0.883990  0.383990  0.383990  1.0
  O  O42  1  0.616010  0.883990  0.616010  1.0
  O  O43  1  0.883990  0.616010  0.616010  1.0
  O  O44  1  0.633990  0.366010  0.633990  1.0
  O  O45  1  0.866010  0.133990  0.633990  1.0
  O  O46  1  0.616010  0.116010  0.383990  1.0
  O  O47  1  0.866010  0.366010  0.866010  1.0
  O  O48  1  0.633990  0.633990  0.366010  1.0
  O  O49  1  0.883990  0.883990  0.883990  1.0
  O  O50  1  0.616010  0.383990  0.116010  1.0
  O  O51  1  0.883990  0.116010  0.116010  1.0
  O  O52  1  0.633990  0.866010  0.133990  1.0
  O  O53  1  0.866010  0.633990  0.133990  1.0
  O  O54  1  0.616010  0.616010  0.883990  1.0
  O  O55  1  0.866010  0.866010  0.366010  1.0
