# generated using pymatgen
data_Dy2NbO4
_symmetry_space_group_name_H-M   'P 1'
_cell_length_a   9.26926480
_cell_length_b   9.26926480
_cell_length_c   9.26926480
_cell_angle_alpha   90.00000000
_cell_angle_beta   90.00000000
_cell_angle_gamma   90.00000000
_symmetry_Int_Tables_number   1
_chemical_formula_structural   Dy2NbO4
_chemical_formula_sum   'Dy16 Nb8 O32'
_cell_volume   796.40846563
_cell_formula_units_Z   8
loop_
 _symmetry_equiv_pos_site_id
 _symmetry_equiv_pos_as_xyz
  1  'x, y, z'
loop_
 _atom_site_type_symbol
 _atom_site_label
 _atom_site_symmetry_multiplicity
 _atom_site_fract_x
 _atom_site_fract_y
 _atom_site_fract_z
 _atom_site_occupancy
  Dy  Dy0  1  0.125000  0.125000  0.625000  1.0
  Dy  Dy1  1  0.375000  0.375000  0.625000  1.0
  Dy  Dy2  1  0.125000  0.375000  0.875000  1.0
  Dy  Dy3  1  0.375000  0.125000  0.875000  1.0
  Dy  Dy4  1  0.125000  0.625000  0.125000  1.0
  Dy  Dy5  1  0.375000  0.875000  0.125000  1.0
  Dy  Dy6  1  0.125000  0.875000  0.375000  1.0
  Dy  Dy7  1  0.375000  0.625000  0.375000  1.0
  Dy  Dy8  1  0.625000  0.125000  0.125000  1.0
  Dy  Dy9  1  0.875000  0.375000  0.125000  1.0
  Dy  Dy10  1  0.625000  0.375000  0.375000  1.0
  Dy  Dy11  1  0.875000  0.125000  0.375000  1.0
  Dy  Dy12  1  0.625000  0.625000  0.625000  1.0
  Dy  Dy13  1  0.875000  0.875000  0.625000  1.0
  Dy  Dy14  1  0.625000  0.875000  0.875000  1.0
  Dy  Dy15  1  0.875000  0.625000  0.875000  1.0
  Nb  Nb16  1  0.500000  0.500000  0.000000  1.0
  Nb  Nb17  1  0.250000  0.250000  0.250000  1.0
  Nb  Nb18  1  0.500000  0.000000  0.500000  1.0
  Nb  Nb19  1  0.250000  0.750000  0.750000  1.0
  Nb  Nb20  1  0.000000  0.500000  0.500000  1.0
  Nb  Nb21  1  0.750000  0.250000  0.750000  1.0
  Nb  Nb22  1  0.000000  0.000000  0.000000  1.0
  Nb  Nb23  1  0.750000  0.750000  0.250000  1.0
  O  O24  1  0.127480  0.127480  0.372520  1.0
  O  O25  1  0.377480  0.377480  0.877480  1.0
  O  O26  1  0.122520  0.877480  0.122520  1.0
  O  O27  1  0.377480  0.622520  0.122520  1.0
  O  O28  1  0.127480  0.372520  0.127480  1.0
  O  O29  1  0.372520  0.127480  0.127480  1.0
  O  O30  1  0.122520  0.122520  0.877480  1.0
  O  O31  1  0.372520  0.372520  0.372520  1.0
  O  O32  1  0.127480  0.627480  0.872520  1.0
  O  O33  1  0.377480  0.877480  0.377480  1.0
  O  O34  1  0.122520  0.377480  0.622520  1.0
  O  O35  1  0.377480  0.122520  0.622520  1.0
  O  O36  1  0.127480  0.872520  0.627480  1.0
  O  O37  1  0.372520  0.627480  0.627480  1.0
  O  O38  1  0.122520  0.622520  0.377480  1.0
  O  O39  1  0.372520  0.872520  0.872520  1.0
  O  O40  1  0.627480  0.127480  0.872520  1.0
  O  O41  1  0.877480  0.377480  0.377480  1.0
  O  O42  1  0.622520  0.877480  0.622520  1.0
  O  O43  1  0.877480  0.622520  0.622520  1.0
  O  O44  1  0.627480  0.372520  0.627480  1.0
  O  O45  1  0.872520  0.127480  0.627480  1.0
  O  O46  1  0.622520  0.122520  0.377480  1.0
  O  O47  1  0.872520  0.372520  0.872520  1.0
  O  O48  1  0.627480  0.627480  0.372520  1.0
  O  O49  1  0.877480  0.877480  0.877480  1.0
  O  O50  1  0.622520  0.377480  0.122520  1.0
  O  O51  1  0.877480  0.122520  0.122520  1.0
  O  O52  1  0.627480  0.872520  0.127480  1.0
  O  O53  1  0.872520  0.627480  0.127480  1.0
  O  O54  1  0.622520  0.622520  0.877480  1.0
  O  O55  1  0.872520  0.872520  0.372520  1.0
