# generated using pymatgen
data_Nb(IrO2)2
_symmetry_space_group_name_H-M   'P 1'
_cell_length_a   8.85638516
_cell_length_b   8.85638516
_cell_length_c   8.85638516
_cell_angle_alpha   90.00000000
_cell_angle_beta   90.00000000
_cell_angle_gamma   90.00000000
_symmetry_Int_Tables_number   1
_chemical_formula_structural   Nb(IrO2)2
_chemical_formula_sum   'Nb8 Ir16 O32'
_cell_volume   694.65551165
_cell_formula_units_Z   8
loop_
 _symmetry_equiv_pos_site_id
 _symmetry_equiv_pos_as_xyz
  1  'x, y, z'
loop_
 _atom_site_type_symbol
 _atom_site_label
 _atom_site_symmetry_multiplicity
 _atom_site_fract_x
 _atom_site_fract_y
 _atom_site_fract_z
 _atom_site_occupancy
  Nb  Nb0  1  0.500000  0.500000  0.000000  1.0
  Nb  Nb1  1  0.250000  0.250000  0.250000  1.0
  Nb  Nb2  1  0.500000  0.000000  0.500000  1.0
  Nb  Nb3  1  0.250000  0.750000  0.750000  1.0
  Nb  Nb4  1  0.000000  0.500000  0.500000  1.0
  Nb  Nb5  1  0.750000  0.250000  0.750000  1.0
  Nb  Nb6  1  0.000000  0.000000  0.000000  1.0
  Nb  Nb7  1  0.750000  0.750000  0.250000  1.0
  Ir  Ir8  1  0.125000  0.125000  0.625000  1.0
  Ir  Ir9  1  0.375000  0.375000  0.625000  1.0
  Ir  Ir10  1  0.125000  0.375000  0.875000  1.0
  Ir  Ir11  1  0.375000  0.125000  0.875000  1.0
  Ir  Ir12  1  0.125000  0.625000  0.125000  1.0
  Ir  Ir13  1  0.375000  0.875000  0.125000  1.0
  Ir  Ir14  1  0.125000  0.875000  0.375000  1.0
  Ir  Ir15  1  0.375000  0.625000  0.375000  1.0
  Ir  Ir16  1  0.625000  0.125000  0.125000  1.0
  Ir  Ir17  1  0.875000  0.375000  0.125000  1.0
  Ir  Ir18  1  0.625000  0.375000  0.375000  1.0
  Ir  Ir19  1  0.875000  0.125000  0.375000  1.0
  Ir  Ir20  1  0.625000  0.625000  0.625000  1.0
  Ir  Ir21  1  0.875000  0.875000  0.625000  1.0
  Ir  Ir22  1  0.625000  0.875000  0.875000  1.0
  Ir  Ir23  1  0.875000  0.625000  0.875000  1.0
  O  O24  1  0.121467  0.121467  0.378533  1.0
  O  O25  1  0.371467  0.371467  0.871467  1.0
  O  O26  1  0.128533  0.871467  0.128533  1.0
  O  O27  1  0.371467  0.628533  0.128533  1.0
  O  O28  1  0.121467  0.378533  0.121467  1.0
  O  O29  1  0.378533  0.121467  0.121467  1.0
  O  O30  1  0.128533  0.128533  0.871467  1.0
  O  O31  1  0.378533  0.378533  0.378533  1.0
  O  O32  1  0.121467  0.621467  0.878533  1.0
  O  O33  1  0.371467  0.871467  0.371467  1.0
  O  O34  1  0.128533  0.371467  0.628533  1.0
  O  O35  1  0.371467  0.128533  0.628533  1.0
  O  O36  1  0.121467  0.878533  0.621467  1.0
  O  O37  1  0.378533  0.621467  0.621467  1.0
  O  O38  1  0.128533  0.628533  0.371467  1.0
  O  O39  1  0.378533  0.878533  0.878533  1.0
  O  O40  1  0.621467  0.121467  0.878533  1.0
  O  O41  1  0.871467  0.371467  0.371467  1.0
  O  O42  1  0.628533  0.871467  0.628533  1.0
  O  O43  1  0.871467  0.628533  0.628533  1.0
  O  O44  1  0.621467  0.378533  0.621467  1.0
  O  O45  1  0.878533  0.121467  0.621467  1.0
  O  O46  1  0.628533  0.128533  0.371467  1.0
  O  O47  1  0.878533  0.378533  0.878533  1.0
  O  O48  1  0.621467  0.621467  0.378533  1.0
  O  O49  1  0.871467  0.871467  0.871467  1.0
  O  O50  1  0.628533  0.371467  0.128533  1.0
  O  O51  1  0.871467  0.128533  0.128533  1.0
  O  O52  1  0.621467  0.878533  0.121467  1.0
  O  O53  1  0.878533  0.621467  0.121467  1.0
  O  O54  1  0.628533  0.628533  0.871467  1.0
  O  O55  1  0.878533  0.878533  0.378533  1.0
