# generated using pymatgen
data_NdEr2O4
_symmetry_space_group_name_H-M   'P 1'
_cell_length_a   9.53191255
_cell_length_b   9.53191255
_cell_length_c   9.53191255
_cell_angle_alpha   90.00000000
_cell_angle_beta   90.00000000
_cell_angle_gamma   90.00000000
_symmetry_Int_Tables_number   1
_chemical_formula_structural   NdEr2O4
_chemical_formula_sum   'Nd8 Er16 O32'
_cell_volume   866.04437943
_cell_formula_units_Z   8
loop_
 _symmetry_equiv_pos_site_id
 _symmetry_equiv_pos_as_xyz
  1  'x, y, z'
loop_
 _atom_site_type_symbol
 _atom_site_label
 _atom_site_symmetry_multiplicity
 _atom_site_fract_x
 _atom_site_fract_y
 _atom_site_fract_z
 _atom_site_occupancy
  Nd  Nd0  1  0.500000  0.500000  0.000000  1.0
  Nd  Nd1  1  0.250000  0.250000  0.250000  1.0
  Nd  Nd2  1  0.500000  0.000000  0.500000  1.0
  Nd  Nd3  1  0.250000  0.750000  0.750000  1.0
  Nd  Nd4  1  0.000000  0.500000  0.500000  1.0
  Nd  Nd5  1  0.750000  0.250000  0.750000  1.0
  Nd  Nd6  1  0.000000  0.000000  0.000000  1.0
  Nd  Nd7  1  0.750000  0.750000  0.250000  1.0
  Er  Er8  1  0.125000  0.125000  0.625000  1.0
  Er  Er9  1  0.375000  0.375000  0.625000  1.0
  Er  Er10  1  0.125000  0.375000  0.875000  1.0
  Er  Er11  1  0.375000  0.125000  0.875000  1.0
  Er  Er12  1  0.125000  0.625000  0.125000  1.0
  Er  Er13  1  0.375000  0.875000  0.125000  1.0
  Er  Er14  1  0.125000  0.875000  0.375000  1.0
  Er  Er15  1  0.375000  0.625000  0.375000  1.0
  Er  Er16  1  0.625000  0.125000  0.125000  1.0
  Er  Er17  1  0.875000  0.375000  0.125000  1.0
  Er  Er18  1  0.625000  0.375000  0.375000  1.0
  Er  Er19  1  0.875000  0.125000  0.375000  1.0
  Er  Er20  1  0.625000  0.625000  0.625000  1.0
  Er  Er21  1  0.875000  0.875000  0.625000  1.0
  Er  Er22  1  0.625000  0.875000  0.875000  1.0
  Er  Er23  1  0.875000  0.625000  0.875000  1.0
  O  O24  1  0.111977  0.111977  0.388023  1.0
  O  O25  1  0.361977  0.361977  0.861977  1.0
  O  O26  1  0.138023  0.861977  0.138023  1.0
  O  O27  1  0.361977  0.638023  0.138023  1.0
  O  O28  1  0.111977  0.388023  0.111977  1.0
  O  O29  1  0.388023  0.111977  0.111977  1.0
  O  O30  1  0.138023  0.138023  0.861977  1.0
  O  O31  1  0.388023  0.388023  0.388023  1.0
  O  O32  1  0.111977  0.611977  0.888023  1.0
  O  O33  1  0.361977  0.861977  0.361977  1.0
  O  O34  1  0.138023  0.361977  0.638023  1.0
  O  O35  1  0.361977  0.138023  0.638023  1.0
  O  O36  1  0.111977  0.888023  0.611977  1.0
  O  O37  1  0.388023  0.611977  0.611977  1.0
  O  O38  1  0.138023  0.638023  0.361977  1.0
  O  O39  1  0.388023  0.888023  0.888023  1.0
  O  O40  1  0.611977  0.111977  0.888023  1.0
  O  O41  1  0.861977  0.361977  0.361977  1.0
  O  O42  1  0.638023  0.861977  0.638023  1.0
  O  O43  1  0.861977  0.638023  0.638023  1.0
  O  O44  1  0.611977  0.388023  0.611977  1.0
  O  O45  1  0.888023  0.111977  0.611977  1.0
  O  O46  1  0.638023  0.138023  0.361977  1.0
  O  O47  1  0.888023  0.388023  0.888023  1.0
  O  O48  1  0.611977  0.611977  0.388023  1.0
  O  O49  1  0.861977  0.861977  0.861977  1.0
  O  O50  1  0.638023  0.361977  0.138023  1.0
  O  O51  1  0.861977  0.138023  0.138023  1.0
  O  O52  1  0.611977  0.888023  0.111977  1.0
  O  O53  1  0.888023  0.611977  0.111977  1.0
  O  O54  1  0.638023  0.638023  0.861977  1.0
  O  O55  1  0.888023  0.888023  0.388023  1.0
