# generated using pymatgen
data_NdNb2O4
_symmetry_space_group_name_H-M   'P 1'
_cell_length_a   9.17396095
_cell_length_b   9.17396095
_cell_length_c   9.17396095
_cell_angle_alpha   90.00000000
_cell_angle_beta   90.00000000
_cell_angle_gamma   90.00000000
_symmetry_Int_Tables_number   1
_chemical_formula_structural   NdNb2O4
_chemical_formula_sum   'Nd8 Nb16 O32'
_cell_volume   772.09486114
_cell_formula_units_Z   8
loop_
 _symmetry_equiv_pos_site_id
 _symmetry_equiv_pos_as_xyz
  1  'x, y, z'
loop_
 _atom_site_type_symbol
 _atom_site_label
 _atom_site_symmetry_multiplicity
 _atom_site_fract_x
 _atom_site_fract_y
 _atom_site_fract_z
 _atom_site_occupancy
  Nd  Nd0  1  0.500000  0.500000  0.000000  1.0
  Nd  Nd1  1  0.250000  0.250000  0.250000  1.0
  Nd  Nd2  1  0.500000  0.000000  0.500000  1.0
  Nd  Nd3  1  0.250000  0.750000  0.750000  1.0
  Nd  Nd4  1  0.000000  0.500000  0.500000  1.0
  Nd  Nd5  1  0.750000  0.250000  0.750000  1.0
  Nd  Nd6  1  0.000000  0.000000  0.000000  1.0
  Nd  Nd7  1  0.750000  0.750000  0.250000  1.0
  Nb  Nb8  1  0.125000  0.125000  0.625000  1.0
  Nb  Nb9  1  0.375000  0.375000  0.625000  1.0
  Nb  Nb10  1  0.125000  0.375000  0.875000  1.0
  Nb  Nb11  1  0.375000  0.125000  0.875000  1.0
  Nb  Nb12  1  0.125000  0.625000  0.125000  1.0
  Nb  Nb13  1  0.375000  0.875000  0.125000  1.0
  Nb  Nb14  1  0.125000  0.875000  0.375000  1.0
  Nb  Nb15  1  0.375000  0.625000  0.375000  1.0
  Nb  Nb16  1  0.625000  0.125000  0.125000  1.0
  Nb  Nb17  1  0.875000  0.375000  0.125000  1.0
  Nb  Nb18  1  0.625000  0.375000  0.375000  1.0
  Nb  Nb19  1  0.875000  0.125000  0.375000  1.0
  Nb  Nb20  1  0.625000  0.625000  0.625000  1.0
  Nb  Nb21  1  0.875000  0.875000  0.625000  1.0
  Nb  Nb22  1  0.625000  0.875000  0.875000  1.0
  Nb  Nb23  1  0.875000  0.625000  0.875000  1.0
  O  O24  1  0.111897  0.111897  0.388103  1.0
  O  O25  1  0.361897  0.361897  0.861897  1.0
  O  O26  1  0.138103  0.861897  0.138103  1.0
  O  O27  1  0.361897  0.638103  0.138103  1.0
  O  O28  1  0.111897  0.388103  0.111897  1.0
  O  O29  1  0.388103  0.111897  0.111897  1.0
  O  O30  1  0.138103  0.138103  0.861897  1.0
  O  O31  1  0.388103  0.388103  0.388103  1.0
  O  O32  1  0.111897  0.611897  0.888103  1.0
  O  O33  1  0.361897  0.861897  0.361897  1.0
  O  O34  1  0.138103  0.361897  0.638103  1.0
  O  O35  1  0.361897  0.138103  0.638103  1.0
  O  O36  1  0.111897  0.888103  0.611897  1.0
  O  O37  1  0.388103  0.611897  0.611897  1.0
  O  O38  1  0.138103  0.638103  0.361897  1.0
  O  O39  1  0.388103  0.888103  0.888103  1.0
  O  O40  1  0.611897  0.111897  0.888103  1.0
  O  O41  1  0.861897  0.361897  0.361897  1.0
  O  O42  1  0.638103  0.861897  0.638103  1.0
  O  O43  1  0.861897  0.638103  0.638103  1.0
  O  O44  1  0.611897  0.388103  0.611897  1.0
  O  O45  1  0.888103  0.111897  0.611897  1.0
  O  O46  1  0.638103  0.138103  0.361897  1.0
  O  O47  1  0.888103  0.388103  0.888103  1.0
  O  O48  1  0.611897  0.611897  0.388103  1.0
  O  O49  1  0.861897  0.861897  0.861897  1.0
  O  O50  1  0.638103  0.361897  0.138103  1.0
  O  O51  1  0.861897  0.138103  0.138103  1.0
  O  O52  1  0.611897  0.888103  0.111897  1.0
  O  O53  1  0.888103  0.611897  0.111897  1.0
  O  O54  1  0.638103  0.638103  0.861897  1.0
  O  O55  1  0.888103  0.888103  0.388103  1.0
