# generated using pymatgen
data_Sr2NdO4
_symmetry_space_group_name_H-M   'P 1'
_cell_length_a   9.88167585
_cell_length_b   9.88167585
_cell_length_c   9.88167585
_cell_angle_alpha   90.00000000
_cell_angle_beta   90.00000000
_cell_angle_gamma   90.00000000
_symmetry_Int_Tables_number   1
_chemical_formula_structural   Sr2NdO4
_chemical_formula_sum   'Sr16 Nd8 O32'
_cell_volume   964.92111527
_cell_formula_units_Z   8
loop_
 _symmetry_equiv_pos_site_id
 _symmetry_equiv_pos_as_xyz
  1  'x, y, z'
loop_
 _atom_site_type_symbol
 _atom_site_label
 _atom_site_symmetry_multiplicity
 _atom_site_fract_x
 _atom_site_fract_y
 _atom_site_fract_z
 _atom_site_occupancy
  Sr  Sr0  1  0.125000  0.125000  0.625000  1.0
  Sr  Sr1  1  0.375000  0.375000  0.625000  1.0
  Sr  Sr2  1  0.125000  0.375000  0.875000  1.0
  Sr  Sr3  1  0.375000  0.125000  0.875000  1.0
  Sr  Sr4  1  0.125000  0.625000  0.125000  1.0
  Sr  Sr5  1  0.375000  0.875000  0.125000  1.0
  Sr  Sr6  1  0.125000  0.875000  0.375000  1.0
  Sr  Sr7  1  0.375000  0.625000  0.375000  1.0
  Sr  Sr8  1  0.625000  0.125000  0.125000  1.0
  Sr  Sr9  1  0.875000  0.375000  0.125000  1.0
  Sr  Sr10  1  0.625000  0.375000  0.375000  1.0
  Sr  Sr11  1  0.875000  0.125000  0.375000  1.0
  Sr  Sr12  1  0.625000  0.625000  0.625000  1.0
  Sr  Sr13  1  0.875000  0.875000  0.625000  1.0
  Sr  Sr14  1  0.625000  0.875000  0.875000  1.0
  Sr  Sr15  1  0.875000  0.625000  0.875000  1.0
  Nd  Nd16  1  0.500000  0.500000  0.000000  1.0
  Nd  Nd17  1  0.250000  0.250000  0.250000  1.0
  Nd  Nd18  1  0.500000  0.000000  0.500000  1.0
  Nd  Nd19  1  0.250000  0.750000  0.750000  1.0
  Nd  Nd20  1  0.000000  0.500000  0.500000  1.0
  Nd  Nd21  1  0.750000  0.250000  0.750000  1.0
  Nd  Nd22  1  0.000000  0.000000  0.000000  1.0
  Nd  Nd23  1  0.750000  0.750000  0.250000  1.0
  O  O24  1  0.121027  0.121027  0.378973  1.0
  O  O25  1  0.371027  0.371027  0.871027  1.0
  O  O26  1  0.128973  0.871027  0.128973  1.0
  O  O27  1  0.371027  0.628973  0.128973  1.0
  O  O28  1  0.121027  0.378973  0.121027  1.0
  O  O29  1  0.378973  0.121027  0.121027  1.0
  O  O30  1  0.128973  0.128973  0.871027  1.0
  O  O31  1  0.378973  0.378973  0.378973  1.0
  O  O32  1  0.121027  0.621027  0.878973  1.0
  O  O33  1  0.371027  0.871027  0.371027  1.0
  O  O34  1  0.128973  0.371027  0.628973  1.0
  O  O35  1  0.371027  0.128973  0.628973  1.0
  O  O36  1  0.121027  0.878973  0.621027  1.0
  O  O37  1  0.378973  0.621027  0.621027  1.0
  O  O38  1  0.128973  0.628973  0.371027  1.0
  O  O39  1  0.378973  0.878973  0.878973  1.0
  O  O40  1  0.621027  0.121027  0.878973  1.0
  O  O41  1  0.871027  0.371027  0.371027  1.0
  O  O42  1  0.628973  0.871027  0.628973  1.0
  O  O43  1  0.871027  0.628973  0.628973  1.0
  O  O44  1  0.621027  0.378973  0.621027  1.0
  O  O45  1  0.878973  0.121027  0.621027  1.0
  O  O46  1  0.628973  0.128973  0.371027  1.0
  O  O47  1  0.878973  0.378973  0.878973  1.0
  O  O48  1  0.621027  0.621027  0.378973  1.0
  O  O49  1  0.871027  0.871027  0.871027  1.0
  O  O50  1  0.628973  0.371027  0.128973  1.0
  O  O51  1  0.871027  0.128973  0.128973  1.0
  O  O52  1  0.621027  0.878973  0.121027  1.0
  O  O53  1  0.878973  0.621027  0.121027  1.0
  O  O54  1  0.628973  0.628973  0.871027  1.0
  O  O55  1  0.878973  0.878973  0.378973  1.0
