# generated using pymatgen
data_Ca2NiO4
_symmetry_space_group_name_H-M   'P 1'
_cell_length_a   9.06741410
_cell_length_b   9.06741410
_cell_length_c   9.06741410
_cell_angle_alpha   90.00000000
_cell_angle_beta   90.00000000
_cell_angle_gamma   90.00000000
_symmetry_Int_Tables_number   1
_chemical_formula_structural   Ca2NiO4
_chemical_formula_sum   'Ca16 Ni8 O32'
_cell_volume   745.50463924
_cell_formula_units_Z   8
loop_
 _symmetry_equiv_pos_site_id
 _symmetry_equiv_pos_as_xyz
  1  'x, y, z'
loop_
 _atom_site_type_symbol
 _atom_site_label
 _atom_site_symmetry_multiplicity
 _atom_site_fract_x
 _atom_site_fract_y
 _atom_site_fract_z
 _atom_site_occupancy
  Ca  Ca0  1  0.125000  0.125000  0.625000  1.0
  Ca  Ca1  1  0.375000  0.375000  0.625000  1.0
  Ca  Ca2  1  0.125000  0.375000  0.875000  1.0
  Ca  Ca3  1  0.375000  0.125000  0.875000  1.0
  Ca  Ca4  1  0.125000  0.625000  0.125000  1.0
  Ca  Ca5  1  0.375000  0.875000  0.125000  1.0
  Ca  Ca6  1  0.125000  0.875000  0.375000  1.0
  Ca  Ca7  1  0.375000  0.625000  0.375000  1.0
  Ca  Ca8  1  0.625000  0.125000  0.125000  1.0
  Ca  Ca9  1  0.875000  0.375000  0.125000  1.0
  Ca  Ca10  1  0.625000  0.375000  0.375000  1.0
  Ca  Ca11  1  0.875000  0.125000  0.375000  1.0
  Ca  Ca12  1  0.625000  0.625000  0.625000  1.0
  Ca  Ca13  1  0.875000  0.875000  0.625000  1.0
  Ca  Ca14  1  0.625000  0.875000  0.875000  1.0
  Ca  Ca15  1  0.875000  0.625000  0.875000  1.0
  Ni  Ni16  1  0.500000  0.500000  0.000000  1.0
  Ni  Ni17  1  0.250000  0.250000  0.250000  1.0
  Ni  Ni18  1  0.500000  0.000000  0.500000  1.0
  Ni  Ni19  1  0.250000  0.750000  0.750000  1.0
  Ni  Ni20  1  0.000000  0.500000  0.500000  1.0
  Ni  Ni21  1  0.750000  0.250000  0.750000  1.0
  Ni  Ni22  1  0.000000  0.000000  0.000000  1.0
  Ni  Ni23  1  0.750000  0.750000  0.250000  1.0
  O  O24  1  0.131867  0.131867  0.368133  1.0
  O  O25  1  0.381867  0.381867  0.881867  1.0
  O  O26  1  0.118133  0.881867  0.118133  1.0
  O  O27  1  0.381867  0.618133  0.118133  1.0
  O  O28  1  0.131867  0.368133  0.131867  1.0
  O  O29  1  0.368133  0.131867  0.131867  1.0
  O  O30  1  0.118133  0.118133  0.881867  1.0
  O  O31  1  0.368133  0.368133  0.368133  1.0
  O  O32  1  0.131867  0.631867  0.868133  1.0
  O  O33  1  0.381867  0.881867  0.381867  1.0
  O  O34  1  0.118133  0.381867  0.618133  1.0
  O  O35  1  0.381867  0.118133  0.618133  1.0
  O  O36  1  0.131867  0.868133  0.631867  1.0
  O  O37  1  0.368133  0.631867  0.631867  1.0
  O  O38  1  0.118133  0.618133  0.381867  1.0
  O  O39  1  0.368133  0.868133  0.868133  1.0
  O  O40  1  0.631867  0.131867  0.868133  1.0
  O  O41  1  0.881867  0.381867  0.381867  1.0
  O  O42  1  0.618133  0.881867  0.618133  1.0
  O  O43  1  0.881867  0.618133  0.618133  1.0
  O  O44  1  0.631867  0.368133  0.631867  1.0
  O  O45  1  0.868133  0.131867  0.631867  1.0
  O  O46  1  0.618133  0.118133  0.381867  1.0
  O  O47  1  0.868133  0.368133  0.868133  1.0
  O  O48  1  0.631867  0.631867  0.368133  1.0
  O  O49  1  0.881867  0.881867  0.881867  1.0
  O  O50  1  0.618133  0.381867  0.118133  1.0
  O  O51  1  0.881867  0.118133  0.118133  1.0
  O  O52  1  0.631867  0.868133  0.131867  1.0
  O  O53  1  0.868133  0.631867  0.131867  1.0
  O  O54  1  0.618133  0.618133  0.881867  1.0
  O  O55  1  0.868133  0.868133  0.368133  1.0
