# generated using pymatgen
data_Ni(PtO2)2
_symmetry_space_group_name_H-M   'P 1'
_cell_length_a   8.74244197
_cell_length_b   8.74244197
_cell_length_c   8.74244197
_cell_angle_alpha   90.00000000
_cell_angle_beta   90.00000000
_cell_angle_gamma   90.00000000
_symmetry_Int_Tables_number   1
_chemical_formula_structural   Ni(PtO2)2
_chemical_formula_sum   'Ni8 Pt16 O32'
_cell_volume   668.18738869
_cell_formula_units_Z   8
loop_
 _symmetry_equiv_pos_site_id
 _symmetry_equiv_pos_as_xyz
  1  'x, y, z'
loop_
 _atom_site_type_symbol
 _atom_site_label
 _atom_site_symmetry_multiplicity
 _atom_site_fract_x
 _atom_site_fract_y
 _atom_site_fract_z
 _atom_site_occupancy
  Ni  Ni0  1  0.500000  0.500000  0.000000  1.0
  Ni  Ni1  1  0.250000  0.250000  0.250000  1.0
  Ni  Ni2  1  0.500000  0.000000  0.500000  1.0
  Ni  Ni3  1  0.250000  0.750000  0.750000  1.0
  Ni  Ni4  1  0.000000  0.500000  0.500000  1.0
  Ni  Ni5  1  0.750000  0.250000  0.750000  1.0
  Ni  Ni6  1  0.000000  0.000000  0.000000  1.0
  Ni  Ni7  1  0.750000  0.750000  0.250000  1.0
  Pt  Pt8  1  0.125000  0.125000  0.625000  1.0
  Pt  Pt9  1  0.375000  0.375000  0.625000  1.0
  Pt  Pt10  1  0.125000  0.375000  0.875000  1.0
  Pt  Pt11  1  0.375000  0.125000  0.875000  1.0
  Pt  Pt12  1  0.125000  0.625000  0.125000  1.0
  Pt  Pt13  1  0.375000  0.875000  0.125000  1.0
  Pt  Pt14  1  0.125000  0.875000  0.375000  1.0
  Pt  Pt15  1  0.375000  0.625000  0.375000  1.0
  Pt  Pt16  1  0.625000  0.125000  0.125000  1.0
  Pt  Pt17  1  0.875000  0.375000  0.125000  1.0
  Pt  Pt18  1  0.625000  0.375000  0.375000  1.0
  Pt  Pt19  1  0.875000  0.125000  0.375000  1.0
  Pt  Pt20  1  0.625000  0.625000  0.625000  1.0
  Pt  Pt21  1  0.875000  0.875000  0.625000  1.0
  Pt  Pt22  1  0.625000  0.875000  0.875000  1.0
  Pt  Pt23  1  0.875000  0.625000  0.875000  1.0
  O  O24  1  0.117957  0.117957  0.382043  1.0
  O  O25  1  0.367957  0.367957  0.867957  1.0
  O  O26  1  0.132043  0.867957  0.132043  1.0
  O  O27  1  0.367957  0.632043  0.132043  1.0
  O  O28  1  0.117957  0.382043  0.117957  1.0
  O  O29  1  0.382043  0.117957  0.117957  1.0
  O  O30  1  0.132043  0.132043  0.867957  1.0
  O  O31  1  0.382043  0.382043  0.382043  1.0
  O  O32  1  0.117957  0.617957  0.882043  1.0
  O  O33  1  0.367957  0.867957  0.367957  1.0
  O  O34  1  0.132043  0.367957  0.632043  1.0
  O  O35  1  0.367957  0.132043  0.632043  1.0
  O  O36  1  0.117957  0.882043  0.617957  1.0
  O  O37  1  0.382043  0.617957  0.617957  1.0
  O  O38  1  0.132043  0.632043  0.367957  1.0
  O  O39  1  0.382043  0.882043  0.882043  1.0
  O  O40  1  0.617957  0.117957  0.882043  1.0
  O  O41  1  0.867957  0.367957  0.367957  1.0
  O  O42  1  0.632043  0.867957  0.632043  1.0
  O  O43  1  0.867957  0.632043  0.632043  1.0
  O  O44  1  0.617957  0.382043  0.617957  1.0
  O  O45  1  0.882043  0.117957  0.617957  1.0
  O  O46  1  0.632043  0.132043  0.367957  1.0
  O  O47  1  0.882043  0.382043  0.882043  1.0
  O  O48  1  0.617957  0.617957  0.382043  1.0
  O  O49  1  0.867957  0.867957  0.867957  1.0
  O  O50  1  0.632043  0.367957  0.132043  1.0
  O  O51  1  0.867957  0.132043  0.132043  1.0
  O  O52  1  0.617957  0.882043  0.117957  1.0
  O  O53  1  0.882043  0.617957  0.117957  1.0
  O  O54  1  0.632043  0.632043  0.867957  1.0
  O  O55  1  0.882043  0.882043  0.382043  1.0
