# generated using pymatgen
data_Co2OsO4
_symmetry_space_group_name_H-M   'P 1'
_cell_length_a   8.25834252
_cell_length_b   8.25834252
_cell_length_c   8.25834252
_cell_angle_alpha   90.00000000
_cell_angle_beta   90.00000000
_cell_angle_gamma   90.00000000
_symmetry_Int_Tables_number   1
_chemical_formula_structural   Co2OsO4
_chemical_formula_sum   'Co16 Os8 O32'
_cell_volume   563.22078722
_cell_formula_units_Z   8
loop_
 _symmetry_equiv_pos_site_id
 _symmetry_equiv_pos_as_xyz
  1  'x, y, z'
loop_
 _atom_site_type_symbol
 _atom_site_label
 _atom_site_symmetry_multiplicity
 _atom_site_fract_x
 _atom_site_fract_y
 _atom_site_fract_z
 _atom_site_occupancy
  Co  Co0  1  0.125000  0.125000  0.625000  1.0
  Co  Co1  1  0.375000  0.375000  0.625000  1.0
  Co  Co2  1  0.125000  0.375000  0.875000  1.0
  Co  Co3  1  0.375000  0.125000  0.875000  1.0
  Co  Co4  1  0.125000  0.625000  0.125000  1.0
  Co  Co5  1  0.375000  0.875000  0.125000  1.0
  Co  Co6  1  0.125000  0.875000  0.375000  1.0
  Co  Co7  1  0.375000  0.625000  0.375000  1.0
  Co  Co8  1  0.625000  0.125000  0.125000  1.0
  Co  Co9  1  0.875000  0.375000  0.125000  1.0
  Co  Co10  1  0.625000  0.375000  0.375000  1.0
  Co  Co11  1  0.875000  0.125000  0.375000  1.0
  Co  Co12  1  0.625000  0.625000  0.625000  1.0
  Co  Co13  1  0.875000  0.875000  0.625000  1.0
  Co  Co14  1  0.625000  0.875000  0.875000  1.0
  Co  Co15  1  0.875000  0.625000  0.875000  1.0
  Os  Os16  1  0.500000  0.500000  0.000000  1.0
  Os  Os17  1  0.250000  0.250000  0.250000  1.0
  Os  Os18  1  0.500000  0.000000  0.500000  1.0
  Os  Os19  1  0.250000  0.750000  0.750000  1.0
  Os  Os20  1  0.000000  0.500000  0.500000  1.0
  Os  Os21  1  0.750000  0.250000  0.750000  1.0
  Os  Os22  1  0.000000  0.000000  0.000000  1.0
  Os  Os23  1  0.750000  0.750000  0.250000  1.0
  O  O24  1  0.111780  0.111780  0.388220  1.0
  O  O25  1  0.361780  0.361780  0.861780  1.0
  O  O26  1  0.138220  0.861780  0.138220  1.0
  O  O27  1  0.361780  0.638220  0.138220  1.0
  O  O28  1  0.111780  0.388220  0.111780  1.0
  O  O29  1  0.388220  0.111780  0.111780  1.0
  O  O30  1  0.138220  0.138220  0.861780  1.0
  O  O31  1  0.388220  0.388220  0.388220  1.0
  O  O32  1  0.111780  0.611780  0.888220  1.0
  O  O33  1  0.361780  0.861780  0.361780  1.0
  O  O34  1  0.138220  0.361780  0.638220  1.0
  O  O35  1  0.361780  0.138220  0.638220  1.0
  O  O36  1  0.111780  0.888220  0.611780  1.0
  O  O37  1  0.388220  0.611780  0.611780  1.0
  O  O38  1  0.138220  0.638220  0.361780  1.0
  O  O39  1  0.388220  0.888220  0.888220  1.0
  O  O40  1  0.611780  0.111780  0.888220  1.0
  O  O41  1  0.861780  0.361780  0.361780  1.0
  O  O42  1  0.638220  0.861780  0.638220  1.0
  O  O43  1  0.861780  0.638220  0.638220  1.0
  O  O44  1  0.611780  0.388220  0.611780  1.0
  O  O45  1  0.888220  0.111780  0.611780  1.0
  O  O46  1  0.638220  0.138220  0.361780  1.0
  O  O47  1  0.888220  0.388220  0.888220  1.0
  O  O48  1  0.611780  0.611780  0.388220  1.0
  O  O49  1  0.861780  0.861780  0.861780  1.0
  O  O50  1  0.638220  0.361780  0.138220  1.0
  O  O51  1  0.861780  0.138220  0.138220  1.0
  O  O52  1  0.611780  0.888220  0.111780  1.0
  O  O53  1  0.888220  0.611780  0.111780  1.0
  O  O54  1  0.638220  0.638220  0.861780  1.0
  O  O55  1  0.888220  0.888220  0.388220  1.0
