# generated using pymatgen
data_Pa(GaO2)2
_symmetry_space_group_name_H-M   'P 1'
_cell_length_a   9.02650090
_cell_length_b   9.02650090
_cell_length_c   9.02650090
_cell_angle_alpha   90.00000000
_cell_angle_beta   90.00000000
_cell_angle_gamma   90.00000000
_symmetry_Int_Tables_number   1
_chemical_formula_structural   Pa(GaO2)2
_chemical_formula_sum   'Pa8 Ga16 O32'
_cell_volume   735.45870046
_cell_formula_units_Z   8
loop_
 _symmetry_equiv_pos_site_id
 _symmetry_equiv_pos_as_xyz
  1  'x, y, z'
loop_
 _atom_site_type_symbol
 _atom_site_label
 _atom_site_symmetry_multiplicity
 _atom_site_fract_x
 _atom_site_fract_y
 _atom_site_fract_z
 _atom_site_occupancy
  Pa  Pa0  1  0.500000  0.500000  0.000000  1.0
  Pa  Pa1  1  0.250000  0.250000  0.250000  1.0
  Pa  Pa2  1  0.500000  0.000000  0.500000  1.0
  Pa  Pa3  1  0.250000  0.750000  0.750000  1.0
  Pa  Pa4  1  0.000000  0.500000  0.500000  1.0
  Pa  Pa5  1  0.750000  0.250000  0.750000  1.0
  Pa  Pa6  1  0.000000  0.000000  0.000000  1.0
  Pa  Pa7  1  0.750000  0.750000  0.250000  1.0
  Ga  Ga8  1  0.125000  0.125000  0.625000  1.0
  Ga  Ga9  1  0.375000  0.375000  0.625000  1.0
  Ga  Ga10  1  0.125000  0.375000  0.875000  1.0
  Ga  Ga11  1  0.375000  0.125000  0.875000  1.0
  Ga  Ga12  1  0.125000  0.625000  0.125000  1.0
  Ga  Ga13  1  0.375000  0.875000  0.125000  1.0
  Ga  Ga14  1  0.125000  0.875000  0.375000  1.0
  Ga  Ga15  1  0.375000  0.625000  0.375000  1.0
  Ga  Ga16  1  0.625000  0.125000  0.125000  1.0
  Ga  Ga17  1  0.875000  0.375000  0.125000  1.0
  Ga  Ga18  1  0.625000  0.375000  0.375000  1.0
  Ga  Ga19  1  0.875000  0.125000  0.375000  1.0
  Ga  Ga20  1  0.625000  0.625000  0.625000  1.0
  Ga  Ga21  1  0.875000  0.875000  0.625000  1.0
  Ga  Ga22  1  0.625000  0.875000  0.875000  1.0
  Ga  Ga23  1  0.875000  0.625000  0.875000  1.0
  O  O24  1  0.106700  0.106700  0.393300  1.0
  O  O25  1  0.356700  0.356700  0.856700  1.0
  O  O26  1  0.143300  0.856700  0.143300  1.0
  O  O27  1  0.356700  0.643300  0.143300  1.0
  O  O28  1  0.106700  0.393300  0.106700  1.0
  O  O29  1  0.393300  0.106700  0.106700  1.0
  O  O30  1  0.143300  0.143300  0.856700  1.0
  O  O31  1  0.393300  0.393300  0.393300  1.0
  O  O32  1  0.106700  0.606700  0.893300  1.0
  O  O33  1  0.356700  0.856700  0.356700  1.0
  O  O34  1  0.143300  0.356700  0.643300  1.0
  O  O35  1  0.356700  0.143300  0.643300  1.0
  O  O36  1  0.106700  0.893300  0.606700  1.0
  O  O37  1  0.393300  0.606700  0.606700  1.0
  O  O38  1  0.143300  0.643300  0.356700  1.0
  O  O39  1  0.393300  0.893300  0.893300  1.0
  O  O40  1  0.606700  0.106700  0.893300  1.0
  O  O41  1  0.856700  0.356700  0.356700  1.0
  O  O42  1  0.643300  0.856700  0.643300  1.0
  O  O43  1  0.856700  0.643300  0.643300  1.0
  O  O44  1  0.606700  0.393300  0.606700  1.0
  O  O45  1  0.893300  0.106700  0.606700  1.0
  O  O46  1  0.643300  0.143300  0.356700  1.0
  O  O47  1  0.893300  0.393300  0.893300  1.0
  O  O48  1  0.606700  0.606700  0.393300  1.0
  O  O49  1  0.856700  0.856700  0.856700  1.0
  O  O50  1  0.643300  0.356700  0.143300  1.0
  O  O51  1  0.856700  0.143300  0.143300  1.0
  O  O52  1  0.606700  0.893300  0.106700  1.0
  O  O53  1  0.893300  0.606700  0.106700  1.0
  O  O54  1  0.643300  0.643300  0.856700  1.0
  O  O55  1  0.893300  0.893300  0.393300  1.0
