# generated using pymatgen
data_PaV2O4
_symmetry_space_group_name_H-M   'P 1'
_cell_length_a   8.82858172
_cell_length_b   8.82858172
_cell_length_c   8.82858172
_cell_angle_alpha   90.00000000
_cell_angle_beta   90.00000000
_cell_angle_gamma   90.00000000
_symmetry_Int_Tables_number   1
_chemical_formula_structural   PaV2O4
_chemical_formula_sum   'Pa8 V16 O32'
_cell_volume   688.13369427
_cell_formula_units_Z   8
loop_
 _symmetry_equiv_pos_site_id
 _symmetry_equiv_pos_as_xyz
  1  'x, y, z'
loop_
 _atom_site_type_symbol
 _atom_site_label
 _atom_site_symmetry_multiplicity
 _atom_site_fract_x
 _atom_site_fract_y
 _atom_site_fract_z
 _atom_site_occupancy
  Pa  Pa0  1  0.500000  0.500000  0.000000  1.0
  Pa  Pa1  1  0.250000  0.250000  0.250000  1.0
  Pa  Pa2  1  0.500000  0.000000  0.500000  1.0
  Pa  Pa3  1  0.250000  0.750000  0.750000  1.0
  Pa  Pa4  1  0.000000  0.500000  0.500000  1.0
  Pa  Pa5  1  0.750000  0.250000  0.750000  1.0
  Pa  Pa6  1  0.000000  0.000000  0.000000  1.0
  Pa  Pa7  1  0.750000  0.750000  0.250000  1.0
  V  V8  1  0.125000  0.125000  0.625000  1.0
  V  V9  1  0.375000  0.375000  0.625000  1.0
  V  V10  1  0.125000  0.375000  0.875000  1.0
  V  V11  1  0.375000  0.125000  0.875000  1.0
  V  V12  1  0.125000  0.625000  0.125000  1.0
  V  V13  1  0.375000  0.875000  0.125000  1.0
  V  V14  1  0.125000  0.875000  0.375000  1.0
  V  V15  1  0.375000  0.625000  0.375000  1.0
  V  V16  1  0.625000  0.125000  0.125000  1.0
  V  V17  1  0.875000  0.375000  0.125000  1.0
  V  V18  1  0.625000  0.375000  0.375000  1.0
  V  V19  1  0.875000  0.125000  0.375000  1.0
  V  V20  1  0.625000  0.625000  0.625000  1.0
  V  V21  1  0.875000  0.875000  0.625000  1.0
  V  V22  1  0.625000  0.875000  0.875000  1.0
  V  V23  1  0.875000  0.625000  0.875000  1.0
  O  O24  1  0.109727  0.109727  0.390273  1.0
  O  O25  1  0.359727  0.359727  0.859727  1.0
  O  O26  1  0.140273  0.859727  0.140273  1.0
  O  O27  1  0.359727  0.640273  0.140273  1.0
  O  O28  1  0.109727  0.390273  0.109727  1.0
  O  O29  1  0.390273  0.109727  0.109727  1.0
  O  O30  1  0.140273  0.140273  0.859727  1.0
  O  O31  1  0.390273  0.390273  0.390273  1.0
  O  O32  1  0.109727  0.609727  0.890273  1.0
  O  O33  1  0.359727  0.859727  0.359727  1.0
  O  O34  1  0.140273  0.359727  0.640273  1.0
  O  O35  1  0.359727  0.140273  0.640273  1.0
  O  O36  1  0.109727  0.890273  0.609727  1.0
  O  O37  1  0.390273  0.609727  0.609727  1.0
  O  O38  1  0.140273  0.640273  0.359727  1.0
  O  O39  1  0.390273  0.890273  0.890273  1.0
  O  O40  1  0.609727  0.109727  0.890273  1.0
  O  O41  1  0.859727  0.359727  0.359727  1.0
  O  O42  1  0.640273  0.859727  0.640273  1.0
  O  O43  1  0.859727  0.640273  0.640273  1.0
  O  O44  1  0.609727  0.390273  0.609727  1.0
  O  O45  1  0.890273  0.109727  0.609727  1.0
  O  O46  1  0.640273  0.140273  0.359727  1.0
  O  O47  1  0.890273  0.390273  0.890273  1.0
  O  O48  1  0.609727  0.609727  0.390273  1.0
  O  O49  1  0.859727  0.859727  0.859727  1.0
  O  O50  1  0.640273  0.359727  0.140273  1.0
  O  O51  1  0.859727  0.140273  0.140273  1.0
  O  O52  1  0.609727  0.890273  0.109727  1.0
  O  O53  1  0.890273  0.609727  0.109727  1.0
  O  O54  1  0.640273  0.640273  0.859727  1.0
  O  O55  1  0.890273  0.890273  0.390273  1.0
