# generated using pymatgen
data_Bi2PdO4
_symmetry_space_group_name_H-M   'P 1'
_cell_length_a   9.61290456
_cell_length_b   9.61290456
_cell_length_c   9.61290456
_cell_angle_alpha   90.00000000
_cell_angle_beta   90.00000000
_cell_angle_gamma   90.00000000
_symmetry_Int_Tables_number   1
_chemical_formula_structural   Bi2PdO4
_chemical_formula_sum   'Bi16 Pd8 O32'
_cell_volume   888.30865039
_cell_formula_units_Z   8
loop_
 _symmetry_equiv_pos_site_id
 _symmetry_equiv_pos_as_xyz
  1  'x, y, z'
loop_
 _atom_site_type_symbol
 _atom_site_label
 _atom_site_symmetry_multiplicity
 _atom_site_fract_x
 _atom_site_fract_y
 _atom_site_fract_z
 _atom_site_occupancy
  Bi  Bi0  1  0.125000  0.125000  0.625000  1.0
  Bi  Bi1  1  0.375000  0.375000  0.625000  1.0
  Bi  Bi2  1  0.125000  0.375000  0.875000  1.0
  Bi  Bi3  1  0.375000  0.125000  0.875000  1.0
  Bi  Bi4  1  0.125000  0.625000  0.125000  1.0
  Bi  Bi5  1  0.375000  0.875000  0.125000  1.0
  Bi  Bi6  1  0.125000  0.875000  0.375000  1.0
  Bi  Bi7  1  0.375000  0.625000  0.375000  1.0
  Bi  Bi8  1  0.625000  0.125000  0.125000  1.0
  Bi  Bi9  1  0.875000  0.375000  0.125000  1.0
  Bi  Bi10  1  0.625000  0.375000  0.375000  1.0
  Bi  Bi11  1  0.875000  0.125000  0.375000  1.0
  Bi  Bi12  1  0.625000  0.625000  0.625000  1.0
  Bi  Bi13  1  0.875000  0.875000  0.625000  1.0
  Bi  Bi14  1  0.625000  0.875000  0.875000  1.0
  Bi  Bi15  1  0.875000  0.625000  0.875000  1.0
  Pd  Pd16  1  0.500000  0.500000  0.000000  1.0
  Pd  Pd17  1  0.250000  0.250000  0.250000  1.0
  Pd  Pd18  1  0.500000  0.000000  0.500000  1.0
  Pd  Pd19  1  0.250000  0.750000  0.750000  1.0
  Pd  Pd20  1  0.000000  0.500000  0.500000  1.0
  Pd  Pd21  1  0.750000  0.250000  0.750000  1.0
  Pd  Pd22  1  0.000000  0.000000  0.000000  1.0
  Pd  Pd23  1  0.750000  0.750000  0.250000  1.0
  O  O24  1  0.121517  0.121517  0.378483  1.0
  O  O25  1  0.371517  0.371517  0.871517  1.0
  O  O26  1  0.128483  0.871517  0.128483  1.0
  O  O27  1  0.371517  0.628483  0.128483  1.0
  O  O28  1  0.121517  0.378483  0.121517  1.0
  O  O29  1  0.378483  0.121517  0.121517  1.0
  O  O30  1  0.128483  0.128483  0.871517  1.0
  O  O31  1  0.378483  0.378483  0.378483  1.0
  O  O32  1  0.121517  0.621517  0.878483  1.0
  O  O33  1  0.371517  0.871517  0.371517  1.0
  O  O34  1  0.128483  0.371517  0.628483  1.0
  O  O35  1  0.371517  0.128483  0.628483  1.0
  O  O36  1  0.121517  0.878483  0.621517  1.0
  O  O37  1  0.378483  0.621517  0.621517  1.0
  O  O38  1  0.128483  0.628483  0.371517  1.0
  O  O39  1  0.378483  0.878483  0.878483  1.0
  O  O40  1  0.621517  0.121517  0.878483  1.0
  O  O41  1  0.871517  0.371517  0.371517  1.0
  O  O42  1  0.628483  0.871517  0.628483  1.0
  O  O43  1  0.871517  0.628483  0.628483  1.0
  O  O44  1  0.621517  0.378483  0.621517  1.0
  O  O45  1  0.878483  0.121517  0.621517  1.0
  O  O46  1  0.628483  0.128483  0.371517  1.0
  O  O47  1  0.878483  0.378483  0.878483  1.0
  O  O48  1  0.621517  0.621517  0.378483  1.0
  O  O49  1  0.871517  0.871517  0.871517  1.0
  O  O50  1  0.628483  0.371517  0.128483  1.0
  O  O51  1  0.871517  0.128483  0.128483  1.0
  O  O52  1  0.621517  0.878483  0.121517  1.0
  O  O53  1  0.878483  0.621517  0.121517  1.0
  O  O54  1  0.628483  0.628483  0.871517  1.0
  O  O55  1  0.878483  0.878483  0.378483  1.0
