# generated using pymatgen
data_Pd(RhO2)2
_symmetry_space_group_name_H-M   'P 1'
_cell_length_a   8.76303292
_cell_length_b   8.76303292
_cell_length_c   8.76303292
_cell_angle_alpha   90.00000000
_cell_angle_beta   90.00000000
_cell_angle_gamma   90.00000000
_symmetry_Int_Tables_number   1
_chemical_formula_structural   Pd(RhO2)2
_chemical_formula_sum   'Pd8 Rh16 O32'
_cell_volume   672.91983429
_cell_formula_units_Z   8
loop_
 _symmetry_equiv_pos_site_id
 _symmetry_equiv_pos_as_xyz
  1  'x, y, z'
loop_
 _atom_site_type_symbol
 _atom_site_label
 _atom_site_symmetry_multiplicity
 _atom_site_fract_x
 _atom_site_fract_y
 _atom_site_fract_z
 _atom_site_occupancy
  Pd  Pd0  1  0.500000  0.500000  0.000000  1.0
  Pd  Pd1  1  0.250000  0.250000  0.250000  1.0
  Pd  Pd2  1  0.500000  0.000000  0.500000  1.0
  Pd  Pd3  1  0.250000  0.750000  0.750000  1.0
  Pd  Pd4  1  0.000000  0.500000  0.500000  1.0
  Pd  Pd5  1  0.750000  0.250000  0.750000  1.0
  Pd  Pd6  1  0.000000  0.000000  0.000000  1.0
  Pd  Pd7  1  0.750000  0.750000  0.250000  1.0
  Rh  Rh8  1  0.125000  0.125000  0.625000  1.0
  Rh  Rh9  1  0.375000  0.375000  0.625000  1.0
  Rh  Rh10  1  0.125000  0.375000  0.875000  1.0
  Rh  Rh11  1  0.375000  0.125000  0.875000  1.0
  Rh  Rh12  1  0.125000  0.625000  0.125000  1.0
  Rh  Rh13  1  0.375000  0.875000  0.125000  1.0
  Rh  Rh14  1  0.125000  0.875000  0.375000  1.0
  Rh  Rh15  1  0.375000  0.625000  0.375000  1.0
  Rh  Rh16  1  0.625000  0.125000  0.125000  1.0
  Rh  Rh17  1  0.875000  0.375000  0.125000  1.0
  Rh  Rh18  1  0.625000  0.375000  0.375000  1.0
  Rh  Rh19  1  0.875000  0.125000  0.375000  1.0
  Rh  Rh20  1  0.625000  0.625000  0.625000  1.0
  Rh  Rh21  1  0.875000  0.875000  0.625000  1.0
  Rh  Rh22  1  0.625000  0.875000  0.875000  1.0
  Rh  Rh23  1  0.875000  0.625000  0.875000  1.0
  O  O24  1  0.106597  0.106597  0.393403  1.0
  O  O25  1  0.356597  0.356597  0.856597  1.0
  O  O26  1  0.143403  0.856597  0.143403  1.0
  O  O27  1  0.356597  0.643403  0.143403  1.0
  O  O28  1  0.106597  0.393403  0.106597  1.0
  O  O29  1  0.393403  0.106597  0.106597  1.0
  O  O30  1  0.143403  0.143403  0.856597  1.0
  O  O31  1  0.393403  0.393403  0.393403  1.0
  O  O32  1  0.106597  0.606597  0.893403  1.0
  O  O33  1  0.356597  0.856597  0.356597  1.0
  O  O34  1  0.143403  0.356597  0.643403  1.0
  O  O35  1  0.356597  0.143403  0.643403  1.0
  O  O36  1  0.106597  0.893403  0.606597  1.0
  O  O37  1  0.393403  0.606597  0.606597  1.0
  O  O38  1  0.143403  0.643403  0.356597  1.0
  O  O39  1  0.393403  0.893403  0.893403  1.0
  O  O40  1  0.606597  0.106597  0.893403  1.0
  O  O41  1  0.856597  0.356597  0.356597  1.0
  O  O42  1  0.643403  0.856597  0.643403  1.0
  O  O43  1  0.856597  0.643403  0.643403  1.0
  O  O44  1  0.606597  0.393403  0.606597  1.0
  O  O45  1  0.893403  0.106597  0.606597  1.0
  O  O46  1  0.643403  0.143403  0.356597  1.0
  O  O47  1  0.893403  0.393403  0.893403  1.0
  O  O48  1  0.606597  0.606597  0.393403  1.0
  O  O49  1  0.856597  0.856597  0.856597  1.0
  O  O50  1  0.643403  0.356597  0.143403  1.0
  O  O51  1  0.856597  0.143403  0.143403  1.0
  O  O52  1  0.606597  0.893403  0.106597  1.0
  O  O53  1  0.893403  0.606597  0.106597  1.0
  O  O54  1  0.643403  0.643403  0.856597  1.0
  O  O55  1  0.893403  0.893403  0.393403  1.0
