# generated using pymatgen
data_Pm(CoO2)2
_symmetry_space_group_name_H-M   'P 1'
_cell_length_a   8.66975139
_cell_length_b   8.66975139
_cell_length_c   8.66975139
_cell_angle_alpha   90.00000000
_cell_angle_beta   90.00000000
_cell_angle_gamma   90.00000000
_symmetry_Int_Tables_number   1
_chemical_formula_structural   Pm(CoO2)2
_chemical_formula_sum   'Pm8 Co16 O32'
_cell_volume   651.65830168
_cell_formula_units_Z   8
loop_
 _symmetry_equiv_pos_site_id
 _symmetry_equiv_pos_as_xyz
  1  'x, y, z'
loop_
 _atom_site_type_symbol
 _atom_site_label
 _atom_site_symmetry_multiplicity
 _atom_site_fract_x
 _atom_site_fract_y
 _atom_site_fract_z
 _atom_site_occupancy
  Pm  Pm0  1  0.500000  0.500000  0.000000  1.0
  Pm  Pm1  1  0.250000  0.250000  0.250000  1.0
  Pm  Pm2  1  0.500000  0.000000  0.500000  1.0
  Pm  Pm3  1  0.250000  0.750000  0.750000  1.0
  Pm  Pm4  1  0.000000  0.500000  0.500000  1.0
  Pm  Pm5  1  0.750000  0.250000  0.750000  1.0
  Pm  Pm6  1  0.000000  0.000000  0.000000  1.0
  Pm  Pm7  1  0.750000  0.750000  0.250000  1.0
  Co  Co8  1  0.125000  0.125000  0.625000  1.0
  Co  Co9  1  0.375000  0.375000  0.625000  1.0
  Co  Co10  1  0.125000  0.375000  0.875000  1.0
  Co  Co11  1  0.375000  0.125000  0.875000  1.0
  Co  Co12  1  0.125000  0.625000  0.125000  1.0
  Co  Co13  1  0.375000  0.875000  0.125000  1.0
  Co  Co14  1  0.125000  0.875000  0.375000  1.0
  Co  Co15  1  0.375000  0.625000  0.375000  1.0
  Co  Co16  1  0.625000  0.125000  0.125000  1.0
  Co  Co17  1  0.875000  0.375000  0.125000  1.0
  Co  Co18  1  0.625000  0.375000  0.375000  1.0
  Co  Co19  1  0.875000  0.125000  0.375000  1.0
  Co  Co20  1  0.625000  0.625000  0.625000  1.0
  Co  Co21  1  0.875000  0.875000  0.625000  1.0
  Co  Co22  1  0.625000  0.875000  0.875000  1.0
  Co  Co23  1  0.875000  0.625000  0.875000  1.0
  O  O24  1  0.103357  0.103357  0.396643  1.0
  O  O25  1  0.353357  0.353357  0.853357  1.0
  O  O26  1  0.146643  0.853357  0.146643  1.0
  O  O27  1  0.353357  0.646643  0.146643  1.0
  O  O28  1  0.103357  0.396643  0.103357  1.0
  O  O29  1  0.396643  0.103357  0.103357  1.0
  O  O30  1  0.146643  0.146643  0.853357  1.0
  O  O31  1  0.396643  0.396643  0.396643  1.0
  O  O32  1  0.103357  0.603357  0.896643  1.0
  O  O33  1  0.353357  0.853357  0.353357  1.0
  O  O34  1  0.146643  0.353357  0.646643  1.0
  O  O35  1  0.353357  0.146643  0.646643  1.0
  O  O36  1  0.103357  0.896643  0.603357  1.0
  O  O37  1  0.396643  0.603357  0.603357  1.0
  O  O38  1  0.146643  0.646643  0.353357  1.0
  O  O39  1  0.396643  0.896643  0.896643  1.0
  O  O40  1  0.603357  0.103357  0.896643  1.0
  O  O41  1  0.853357  0.353357  0.353357  1.0
  O  O42  1  0.646643  0.853357  0.646643  1.0
  O  O43  1  0.853357  0.646643  0.646643  1.0
  O  O44  1  0.603357  0.396643  0.603357  1.0
  O  O45  1  0.896643  0.103357  0.603357  1.0
  O  O46  1  0.646643  0.146643  0.353357  1.0
  O  O47  1  0.896643  0.396643  0.896643  1.0
  O  O48  1  0.603357  0.603357  0.396643  1.0
  O  O49  1  0.853357  0.853357  0.853357  1.0
  O  O50  1  0.646643  0.353357  0.146643  1.0
  O  O51  1  0.853357  0.146643  0.146643  1.0
  O  O52  1  0.603357  0.896643  0.103357  1.0
  O  O53  1  0.896643  0.603357  0.103357  1.0
  O  O54  1  0.646643  0.646643  0.853357  1.0
  O  O55  1  0.896643  0.896643  0.396643  1.0
