# generated using pymatgen
data_Eu2PtO4
_symmetry_space_group_name_H-M   'P 1'
_cell_length_a   9.68050397
_cell_length_b   9.68050397
_cell_length_c   9.68050397
_cell_angle_alpha   90.00000000
_cell_angle_beta   90.00000000
_cell_angle_gamma   90.00000000
_symmetry_Int_Tables_number   1
_chemical_formula_structural   Eu2PtO4
_chemical_formula_sum   'Eu16 Pt8 O32'
_cell_volume   907.18090798
_cell_formula_units_Z   8
loop_
 _symmetry_equiv_pos_site_id
 _symmetry_equiv_pos_as_xyz
  1  'x, y, z'
loop_
 _atom_site_type_symbol
 _atom_site_label
 _atom_site_symmetry_multiplicity
 _atom_site_fract_x
 _atom_site_fract_y
 _atom_site_fract_z
 _atom_site_occupancy
  Eu  Eu1  1  0.375000  0.375000  0.625000  1.0
  Eu  Eu2  1  0.375000  0.125000  0.875000  1.0
  Eu  Eu3  1  0.125000  0.125000  0.625000  1.0
  Eu  Eu4  1  0.125000  0.375000  0.875000  1.0
  Eu  Eu5  1  0.375000  0.875000  0.125000  1.0
  Eu  Eu6  1  0.375000  0.625000  0.375000  1.0
  Eu  Eu7  1  0.125000  0.625000  0.125000  1.0
  Eu  Eu8  1  0.125000  0.875000  0.375000  1.0
  Eu  Eu9  1  0.875000  0.375000  0.125000  1.0
  Eu  Eu10  1  0.875000  0.125000  0.375000  1.0
  Eu  Eu11  1  0.625000  0.125000  0.125000  1.0
  Eu  Eu12  1  0.625000  0.375000  0.375000  1.0
  Eu  Eu13  1  0.875000  0.875000  0.625000  1.0
  Eu  Eu14  1  0.875000  0.625000  0.875000  1.0
  Eu  Eu15  1  0.625000  0.625000  0.625000  1.0
  Eu  Eu16  1  0.625000  0.875000  0.875000  1.0
  Pt  Pt17  1  0.250000  0.250000  0.250000  1.0
  Pt  Pt18  1  0.500000  0.500000  0.000000  1.0
  Pt  Pt19  1  0.250000  0.750000  0.750000  1.0
  Pt  Pt20  1  0.500000  0.000000  0.500000  1.0
  Pt  Pt21  1  0.750000  0.250000  0.750000  1.0
  Pt  Pt22  1  0.000000  0.500000  0.500000  1.0
  Pt  Pt23  1  0.750000  0.750000  0.250000  1.0
  Pt  Pt24  1  0.000000  0.000000  0.000000  1.0
  O  O25  1  0.369480  0.369480  0.869480  1.0
  O  O26  1  0.369480  0.630520  0.130520  1.0
  O  O27  1  0.130520  0.130520  0.869480  1.0
  O  O28  1  0.130520  0.869480  0.130520  1.0
  O  O29  1  0.380520  0.119480  0.119480  1.0
  O  O30  1  0.380520  0.380520  0.380520  1.0
  O  O31  1  0.119480  0.119480  0.380520  1.0
  O  O32  1  0.119480  0.380520  0.119480  1.0
  O  O33  1  0.369480  0.869480  0.369480  1.0
  O  O34  1  0.369480  0.130520  0.630520  1.0
  O  O35  1  0.130520  0.630520  0.369480  1.0
  O  O36  1  0.130520  0.369480  0.630520  1.0
  O  O37  1  0.380520  0.619480  0.619480  1.0
  O  O38  1  0.380520  0.880520  0.880520  1.0
  O  O39  1  0.119480  0.619480  0.880520  1.0
  O  O40  1  0.119480  0.880520  0.619480  1.0
  O  O41  1  0.869480  0.369480  0.369480  1.0
  O  O42  1  0.869480  0.630520  0.630520  1.0
  O  O43  1  0.630520  0.130520  0.369480  1.0
  O  O44  1  0.630520  0.869480  0.630520  1.0
  O  O45  1  0.880520  0.119480  0.619480  1.0
  O  O46  1  0.880520  0.380520  0.880520  1.0
  O  O47  1  0.619480  0.119480  0.880520  1.0
  O  O48  1  0.619480  0.380520  0.619480  1.0
  O  O49  1  0.869480  0.869480  0.869480  1.0
  O  O50  1  0.869480  0.130520  0.130520  1.0
  O  O51  1  0.630520  0.630520  0.869480  1.0
  O  O52  1  0.630520  0.369480  0.130520  1.0
  O  O53  1  0.880520  0.619480  0.119480  1.0
  O  O54  1  0.880520  0.880520  0.380520  1.0
  O  O55  1  0.619480  0.619480  0.380520  1.0
  O  O56  1  0.619480  0.880520  0.119480  1.0
