# generated using pymatgen
data_In2PtO4
_symmetry_space_group_name_H-M   'P 1'
_cell_length_a   9.17783590
_cell_length_b   9.17783590
_cell_length_c   9.17783590
_cell_angle_alpha   90.00000000
_cell_angle_beta   90.00000000
_cell_angle_gamma   90.00000000
_symmetry_Int_Tables_number   1
_chemical_formula_structural   In2PtO4
_chemical_formula_sum   'In16 Pt8 O32'
_cell_volume   773.07363873
_cell_formula_units_Z   8
loop_
 _symmetry_equiv_pos_site_id
 _symmetry_equiv_pos_as_xyz
  1  'x, y, z'
loop_
 _atom_site_type_symbol
 _atom_site_label
 _atom_site_symmetry_multiplicity
 _atom_site_fract_x
 _atom_site_fract_y
 _atom_site_fract_z
 _atom_site_occupancy
  In  In0  1  0.125000  0.125000  0.625000  1.0
  In  In1  1  0.375000  0.375000  0.625000  1.0
  In  In2  1  0.125000  0.375000  0.875000  1.0
  In  In3  1  0.375000  0.125000  0.875000  1.0
  In  In4  1  0.125000  0.625000  0.125000  1.0
  In  In5  1  0.375000  0.875000  0.125000  1.0
  In  In6  1  0.125000  0.875000  0.375000  1.0
  In  In7  1  0.375000  0.625000  0.375000  1.0
  In  In8  1  0.625000  0.125000  0.125000  1.0
  In  In9  1  0.875000  0.375000  0.125000  1.0
  In  In10  1  0.625000  0.375000  0.375000  1.0
  In  In11  1  0.875000  0.125000  0.375000  1.0
  In  In12  1  0.625000  0.625000  0.625000  1.0
  In  In13  1  0.875000  0.875000  0.625000  1.0
  In  In14  1  0.625000  0.875000  0.875000  1.0
  In  In15  1  0.875000  0.625000  0.875000  1.0
  Pt  Pt16  1  0.500000  0.500000  0.000000  1.0
  Pt  Pt17  1  0.250000  0.250000  0.250000  1.0
  Pt  Pt18  1  0.500000  0.000000  0.500000  1.0
  Pt  Pt19  1  0.250000  0.750000  0.750000  1.0
  Pt  Pt20  1  0.000000  0.500000  0.500000  1.0
  Pt  Pt21  1  0.750000  0.250000  0.750000  1.0
  Pt  Pt22  1  0.000000  0.000000  0.000000  1.0
  Pt  Pt23  1  0.750000  0.750000  0.250000  1.0
  O  O24  1  0.113953  0.113953  0.386047  1.0
  O  O25  1  0.363953  0.363953  0.863953  1.0
  O  O26  1  0.136047  0.863953  0.136047  1.0
  O  O27  1  0.363953  0.636047  0.136047  1.0
  O  O28  1  0.113953  0.386047  0.113953  1.0
  O  O29  1  0.386047  0.113953  0.113953  1.0
  O  O30  1  0.136047  0.136047  0.863953  1.0
  O  O31  1  0.386047  0.386047  0.386047  1.0
  O  O32  1  0.113953  0.613953  0.886047  1.0
  O  O33  1  0.363953  0.863953  0.363953  1.0
  O  O34  1  0.136047  0.363953  0.636047  1.0
  O  O35  1  0.363953  0.136047  0.636047  1.0
  O  O36  1  0.113953  0.886047  0.613953  1.0
  O  O37  1  0.386047  0.613953  0.613953  1.0
  O  O38  1  0.136047  0.636047  0.363953  1.0
  O  O39  1  0.386047  0.886047  0.886047  1.0
  O  O40  1  0.613953  0.113953  0.886047  1.0
  O  O41  1  0.863953  0.363953  0.363953  1.0
  O  O42  1  0.636047  0.863953  0.636047  1.0
  O  O43  1  0.863953  0.636047  0.636047  1.0
  O  O44  1  0.613953  0.386047  0.613953  1.0
  O  O45  1  0.886047  0.113953  0.613953  1.0
  O  O46  1  0.636047  0.136047  0.363953  1.0
  O  O47  1  0.886047  0.386047  0.886047  1.0
  O  O48  1  0.613953  0.613953  0.386047  1.0
  O  O49  1  0.863953  0.863953  0.863953  1.0
  O  O50  1  0.636047  0.363953  0.136047  1.0
  O  O51  1  0.863953  0.136047  0.136047  1.0
  O  O52  1  0.613953  0.886047  0.113953  1.0
  O  O53  1  0.886047  0.613953  0.113953  1.0
  O  O54  1  0.636047  0.636047  0.863953  1.0
  O  O55  1  0.886047  0.886047  0.386047  1.0
