# generated using pymatgen
data_Pr2PuO4
_symmetry_space_group_name_H-M   'P 1'
_cell_length_a   9.83271577
_cell_length_b   9.83271577
_cell_length_c   9.83271577
_cell_angle_alpha   90.00000000
_cell_angle_beta   90.00000000
_cell_angle_gamma   90.00000000
_symmetry_Int_Tables_number   1
_chemical_formula_structural   Pr2PuO4
_chemical_formula_sum   'Pr16 Pu8 O32'
_cell_volume   950.64957076
_cell_formula_units_Z   8
loop_
 _symmetry_equiv_pos_site_id
 _symmetry_equiv_pos_as_xyz
  1  'x, y, z'
loop_
 _atom_site_type_symbol
 _atom_site_label
 _atom_site_symmetry_multiplicity
 _atom_site_fract_x
 _atom_site_fract_y
 _atom_site_fract_z
 _atom_site_occupancy
  Pr  Pr0  1  0.125000  0.125000  0.625000  1.0
  Pr  Pr1  1  0.375000  0.375000  0.625000  1.0
  Pr  Pr2  1  0.125000  0.375000  0.875000  1.0
  Pr  Pr3  1  0.375000  0.125000  0.875000  1.0
  Pr  Pr4  1  0.125000  0.625000  0.125000  1.0
  Pr  Pr5  1  0.375000  0.875000  0.125000  1.0
  Pr  Pr6  1  0.125000  0.875000  0.375000  1.0
  Pr  Pr7  1  0.375000  0.625000  0.375000  1.0
  Pr  Pr8  1  0.625000  0.125000  0.125000  1.0
  Pr  Pr9  1  0.875000  0.375000  0.125000  1.0
  Pr  Pr10  1  0.625000  0.375000  0.375000  1.0
  Pr  Pr11  1  0.875000  0.125000  0.375000  1.0
  Pr  Pr12  1  0.625000  0.625000  0.625000  1.0
  Pr  Pr13  1  0.875000  0.875000  0.625000  1.0
  Pr  Pr14  1  0.625000  0.875000  0.875000  1.0
  Pr  Pr15  1  0.875000  0.625000  0.875000  1.0
  Pu  Pu16  1  0.500000  0.500000  0.000000  1.0
  Pu  Pu17  1  0.250000  0.250000  0.250000  1.0
  Pu  Pu18  1  0.500000  0.000000  0.500000  1.0
  Pu  Pu19  1  0.250000  0.750000  0.750000  1.0
  Pu  Pu20  1  0.000000  0.500000  0.500000  1.0
  Pu  Pu21  1  0.750000  0.250000  0.750000  1.0
  Pu  Pu22  1  0.000000  0.000000  0.000000  1.0
  Pu  Pu23  1  0.750000  0.750000  0.250000  1.0
  O  O24  1  0.117963  0.117963  0.382037  1.0
  O  O25  1  0.367963  0.367963  0.867963  1.0
  O  O26  1  0.132037  0.867963  0.132037  1.0
  O  O27  1  0.367963  0.632037  0.132037  1.0
  O  O28  1  0.117963  0.382037  0.117963  1.0
  O  O29  1  0.382037  0.117963  0.117963  1.0
  O  O30  1  0.132037  0.132037  0.867963  1.0
  O  O31  1  0.382037  0.382037  0.382037  1.0
  O  O32  1  0.117963  0.617963  0.882037  1.0
  O  O33  1  0.367963  0.867963  0.367963  1.0
  O  O34  1  0.132037  0.367963  0.632037  1.0
  O  O35  1  0.367963  0.132037  0.632037  1.0
  O  O36  1  0.117963  0.882037  0.617963  1.0
  O  O37  1  0.382037  0.617963  0.617963  1.0
  O  O38  1  0.132037  0.632037  0.367963  1.0
  O  O39  1  0.382037  0.882037  0.882037  1.0
  O  O40  1  0.617963  0.117963  0.882037  1.0
  O  O41  1  0.867963  0.367963  0.367963  1.0
  O  O42  1  0.632037  0.867963  0.632037  1.0
  O  O43  1  0.867963  0.632037  0.632037  1.0
  O  O44  1  0.617963  0.382037  0.617963  1.0
  O  O45  1  0.882037  0.117963  0.617963  1.0
  O  O46  1  0.632037  0.132037  0.367963  1.0
  O  O47  1  0.882037  0.382037  0.882037  1.0
  O  O48  1  0.617963  0.617963  0.382037  1.0
  O  O49  1  0.867963  0.867963  0.867963  1.0
  O  O50  1  0.632037  0.367963  0.132037  1.0
  O  O51  1  0.867963  0.132037  0.132037  1.0
  O  O52  1  0.617963  0.882037  0.117963  1.0
  O  O53  1  0.882037  0.617963  0.117963  1.0
  O  O54  1  0.632037  0.632037  0.867963  1.0
  O  O55  1  0.882037  0.882037  0.382037  1.0
