# generated using pymatgen
data_RbBa2O4
_symmetry_space_group_name_H-M   'P 1'
_cell_length_a   10.35110990
_cell_length_b   10.35110990
_cell_length_c   10.35110990
_cell_angle_alpha   90.00000000
_cell_angle_beta   90.00000000
_cell_angle_gamma   90.00000000
_symmetry_Int_Tables_number   1
_chemical_formula_structural   RbBa2O4
_chemical_formula_sum   'Rb8 Ba16 O32'
_cell_volume   1109.07459763
_cell_formula_units_Z   8
loop_
 _symmetry_equiv_pos_site_id
 _symmetry_equiv_pos_as_xyz
  1  'x, y, z'
loop_
 _atom_site_type_symbol
 _atom_site_label
 _atom_site_symmetry_multiplicity
 _atom_site_fract_x
 _atom_site_fract_y
 _atom_site_fract_z
 _atom_site_occupancy
  Rb  Rb0  1  0.500000  0.500000  0.000000  1.0
  Rb  Rb1  1  0.250000  0.250000  0.250000  1.0
  Rb  Rb2  1  0.500000  0.000000  0.500000  1.0
  Rb  Rb3  1  0.250000  0.750000  0.750000  1.0
  Rb  Rb4  1  0.000000  0.500000  0.500000  1.0
  Rb  Rb5  1  0.750000  0.250000  0.750000  1.0
  Rb  Rb6  1  0.000000  0.000000  0.000000  1.0
  Rb  Rb7  1  0.750000  0.750000  0.250000  1.0
  Ba  Ba8  1  0.125000  0.125000  0.625000  1.0
  Ba  Ba9  1  0.375000  0.375000  0.625000  1.0
  Ba  Ba10  1  0.125000  0.375000  0.875000  1.0
  Ba  Ba11  1  0.375000  0.125000  0.875000  1.0
  Ba  Ba12  1  0.125000  0.625000  0.125000  1.0
  Ba  Ba13  1  0.375000  0.875000  0.125000  1.0
  Ba  Ba14  1  0.125000  0.875000  0.375000  1.0
  Ba  Ba15  1  0.375000  0.625000  0.375000  1.0
  Ba  Ba16  1  0.625000  0.125000  0.125000  1.0
  Ba  Ba17  1  0.875000  0.375000  0.125000  1.0
  Ba  Ba18  1  0.625000  0.375000  0.375000  1.0
  Ba  Ba19  1  0.875000  0.125000  0.375000  1.0
  Ba  Ba20  1  0.625000  0.625000  0.625000  1.0
  Ba  Ba21  1  0.875000  0.875000  0.625000  1.0
  Ba  Ba22  1  0.625000  0.875000  0.875000  1.0
  Ba  Ba23  1  0.875000  0.625000  0.875000  1.0
  O  O24  1  0.113140  0.113140  0.386860  1.0
  O  O25  1  0.363140  0.363140  0.863140  1.0
  O  O26  1  0.136860  0.863140  0.136860  1.0
  O  O27  1  0.363140  0.636860  0.136860  1.0
  O  O28  1  0.113140  0.386860  0.113140  1.0
  O  O29  1  0.386860  0.113140  0.113140  1.0
  O  O30  1  0.136860  0.136860  0.863140  1.0
  O  O31  1  0.386860  0.386860  0.386860  1.0
  O  O32  1  0.113140  0.613140  0.886860  1.0
  O  O33  1  0.363140  0.863140  0.363140  1.0
  O  O34  1  0.136860  0.363140  0.636860  1.0
  O  O35  1  0.363140  0.136860  0.636860  1.0
  O  O36  1  0.113140  0.886860  0.613140  1.0
  O  O37  1  0.386860  0.613140  0.613140  1.0
  O  O38  1  0.136860  0.636860  0.363140  1.0
  O  O39  1  0.386860  0.886860  0.886860  1.0
  O  O40  1  0.613140  0.113140  0.886860  1.0
  O  O41  1  0.863140  0.363140  0.363140  1.0
  O  O42  1  0.636860  0.863140  0.636860  1.0
  O  O43  1  0.863140  0.636860  0.636860  1.0
  O  O44  1  0.613140  0.386860  0.613140  1.0
  O  O45  1  0.886860  0.113140  0.613140  1.0
  O  O46  1  0.636860  0.136860  0.363140  1.0
  O  O47  1  0.886860  0.386860  0.886860  1.0
  O  O48  1  0.613140  0.613140  0.386860  1.0
  O  O49  1  0.863140  0.863140  0.863140  1.0
  O  O50  1  0.636860  0.363140  0.136860  1.0
  O  O51  1  0.863140  0.136860  0.136860  1.0
  O  O52  1  0.613140  0.886860  0.113140  1.0
  O  O53  1  0.886860  0.613140  0.113140  1.0
  O  O54  1  0.636860  0.636860  0.863140  1.0
  O  O55  1  0.886860  0.886860  0.386860  1.0
