# generated using pymatgen
data_Re(AsO2)2
_symmetry_space_group_name_H-M   'P 1'
_cell_length_a   9.89324411
_cell_length_b   9.89324411
_cell_length_c   9.89324411
_cell_angle_alpha   90.00000000
_cell_angle_beta   90.00000000
_cell_angle_gamma   90.00000000
_symmetry_Int_Tables_number   1
_chemical_formula_structural   Re(AsO2)2
_chemical_formula_sum   'Re8 As16 O32'
_cell_volume   968.31392171
_cell_formula_units_Z   8
loop_
 _symmetry_equiv_pos_site_id
 _symmetry_equiv_pos_as_xyz
  1  'x, y, z'
loop_
 _atom_site_type_symbol
 _atom_site_label
 _atom_site_symmetry_multiplicity
 _atom_site_fract_x
 _atom_site_fract_y
 _atom_site_fract_z
 _atom_site_occupancy
  Re  Re1  1  0.250000  0.250000  0.250000  1.0
  Re  Re2  1  0.500000  0.500000  0.000000  1.0
  Re  Re3  1  0.250000  0.750000  0.750000  1.0
  Re  Re4  1  0.500000  0.000000  0.500000  1.0
  Re  Re5  1  0.750000  0.250000  0.750000  1.0
  Re  Re6  1  0.000000  0.500000  0.500000  1.0
  Re  Re7  1  0.750000  0.750000  0.250000  1.0
  Re  Re8  1  0.000000  0.000000  0.000000  1.0
  As  As9  1  0.375000  0.375000  0.625000  1.0
  As  As10  1  0.375000  0.125000  0.875000  1.0
  As  As11  1  0.125000  0.125000  0.625000  1.0
  As  As12  1  0.125000  0.375000  0.875000  1.0
  As  As13  1  0.375000  0.875000  0.125000  1.0
  As  As14  1  0.375000  0.625000  0.375000  1.0
  As  As15  1  0.125000  0.625000  0.125000  1.0
  As  As16  1  0.125000  0.875000  0.375000  1.0
  As  As17  1  0.875000  0.375000  0.125000  1.0
  As  As18  1  0.875000  0.125000  0.375000  1.0
  As  As19  1  0.625000  0.125000  0.125000  1.0
  As  As20  1  0.625000  0.375000  0.375000  1.0
  As  As21  1  0.875000  0.875000  0.625000  1.0
  As  As22  1  0.875000  0.625000  0.875000  1.0
  As  As23  1  0.625000  0.625000  0.625000  1.0
  As  As24  1  0.625000  0.875000  0.875000  1.0
  O  O25  1  0.396340  0.396340  0.896340  1.0
  O  O26  1  0.396340  0.603660  0.103660  1.0
  O  O27  1  0.103660  0.103660  0.896340  1.0
  O  O28  1  0.103660  0.896340  0.103660  1.0
  O  O29  1  0.353660  0.146340  0.146340  1.0
  O  O30  1  0.353660  0.353660  0.353660  1.0
  O  O31  1  0.146340  0.146340  0.353660  1.0
  O  O32  1  0.146340  0.353660  0.146340  1.0
  O  O33  1  0.396340  0.896340  0.396340  1.0
  O  O34  1  0.396340  0.103660  0.603660  1.0
  O  O35  1  0.103660  0.603660  0.396340  1.0
  O  O36  1  0.103660  0.396340  0.603660  1.0
  O  O37  1  0.353660  0.646340  0.646340  1.0
  O  O38  1  0.353660  0.853660  0.853660  1.0
  O  O39  1  0.146340  0.646340  0.853660  1.0
  O  O40  1  0.146340  0.853660  0.646340  1.0
  O  O41  1  0.896340  0.396340  0.396340  1.0
  O  O42  1  0.896340  0.603660  0.603660  1.0
  O  O43  1  0.603660  0.103660  0.396340  1.0
  O  O44  1  0.603660  0.896340  0.603660  1.0
  O  O45  1  0.853660  0.146340  0.646340  1.0
  O  O46  1  0.853660  0.353660  0.853660  1.0
  O  O47  1  0.646340  0.146340  0.853660  1.0
  O  O48  1  0.646340  0.353660  0.646340  1.0
  O  O49  1  0.896340  0.896340  0.896340  1.0
  O  O50  1  0.896340  0.103660  0.103660  1.0
  O  O51  1  0.603660  0.603660  0.896340  1.0
  O  O52  1  0.603660  0.396340  0.103660  1.0
  O  O53  1  0.853660  0.646340  0.146340  1.0
  O  O54  1  0.853660  0.853660  0.353660  1.0
  O  O55  1  0.646340  0.646340  0.353660  1.0
  O  O56  1  0.646340  0.853660  0.146340  1.0
