# generated using pymatgen
data_Nd2ReO4
_symmetry_space_group_name_H-M   'P 1'
_cell_length_a   9.63242071
_cell_length_b   9.63242071
_cell_length_c   9.63242071
_cell_angle_alpha   90.00000000
_cell_angle_beta   90.00000000
_cell_angle_gamma   90.00000000
_symmetry_Int_Tables_number   1
_chemical_formula_structural   Nd2ReO4
_chemical_formula_sum   'Nd16 Re8 O32'
_cell_volume   893.72998244
_cell_formula_units_Z   8
loop_
 _symmetry_equiv_pos_site_id
 _symmetry_equiv_pos_as_xyz
  1  'x, y, z'
loop_
 _atom_site_type_symbol
 _atom_site_label
 _atom_site_symmetry_multiplicity
 _atom_site_fract_x
 _atom_site_fract_y
 _atom_site_fract_z
 _atom_site_occupancy
  Nd  Nd1  1  0.375000  0.375000  0.625000  1.0
  Nd  Nd2  1  0.375000  0.125000  0.875000  1.0
  Nd  Nd3  1  0.125000  0.125000  0.625000  1.0
  Nd  Nd4  1  0.125000  0.375000  0.875000  1.0
  Nd  Nd5  1  0.375000  0.875000  0.125000  1.0
  Nd  Nd6  1  0.375000  0.625000  0.375000  1.0
  Nd  Nd7  1  0.125000  0.625000  0.125000  1.0
  Nd  Nd8  1  0.125000  0.875000  0.375000  1.0
  Nd  Nd9  1  0.875000  0.375000  0.125000  1.0
  Nd  Nd10  1  0.875000  0.125000  0.375000  1.0
  Nd  Nd11  1  0.625000  0.125000  0.125000  1.0
  Nd  Nd12  1  0.625000  0.375000  0.375000  1.0
  Nd  Nd13  1  0.875000  0.875000  0.625000  1.0
  Nd  Nd14  1  0.875000  0.625000  0.875000  1.0
  Nd  Nd15  1  0.625000  0.625000  0.625000  1.0
  Nd  Nd16  1  0.625000  0.875000  0.875000  1.0
  Re  Re17  1  0.250000  0.250000  0.250000  1.0
  Re  Re18  1  0.500000  0.500000  0.000000  1.0
  Re  Re19  1  0.250000  0.750000  0.750000  1.0
  Re  Re20  1  0.500000  0.000000  0.500000  1.0
  Re  Re21  1  0.750000  0.250000  0.750000  1.0
  Re  Re22  1  0.000000  0.500000  0.500000  1.0
  Re  Re23  1  0.750000  0.750000  0.250000  1.0
  Re  Re24  1  0.000000  0.000000  0.000000  1.0
  O  O25  1  0.380790  0.380790  0.880790  1.0
  O  O26  1  0.380790  0.619210  0.119210  1.0
  O  O27  1  0.119210  0.119210  0.880790  1.0
  O  O28  1  0.119210  0.880790  0.119210  1.0
  O  O29  1  0.369210  0.130790  0.130790  1.0
  O  O30  1  0.369210  0.369210  0.369210  1.0
  O  O31  1  0.130790  0.130790  0.369210  1.0
  O  O32  1  0.130790  0.369210  0.130790  1.0
  O  O33  1  0.380790  0.880790  0.380790  1.0
  O  O34  1  0.380790  0.119210  0.619210  1.0
  O  O35  1  0.119210  0.619210  0.380790  1.0
  O  O36  1  0.119210  0.380790  0.619210  1.0
  O  O37  1  0.369210  0.630790  0.630790  1.0
  O  O38  1  0.369210  0.869210  0.869210  1.0
  O  O39  1  0.130790  0.630790  0.869210  1.0
  O  O40  1  0.130790  0.869210  0.630790  1.0
  O  O41  1  0.880790  0.380790  0.380790  1.0
  O  O42  1  0.880790  0.619210  0.619210  1.0
  O  O43  1  0.619210  0.119210  0.380790  1.0
  O  O44  1  0.619210  0.880790  0.619210  1.0
  O  O45  1  0.869210  0.130790  0.630790  1.0
  O  O46  1  0.869210  0.369210  0.869210  1.0
  O  O47  1  0.630790  0.130790  0.869210  1.0
  O  O48  1  0.630790  0.369210  0.630790  1.0
  O  O49  1  0.880790  0.880790  0.880790  1.0
  O  O50  1  0.880790  0.119210  0.119210  1.0
  O  O51  1  0.619210  0.619210  0.880790  1.0
  O  O52  1  0.619210  0.380790  0.119210  1.0
  O  O53  1  0.869210  0.630790  0.130790  1.0
  O  O54  1  0.869210  0.869210  0.369210  1.0
  O  O55  1  0.630790  0.630790  0.369210  1.0
  O  O56  1  0.630790  0.869210  0.130790  1.0
