# generated using pymatgen
data_V2ReO4
_symmetry_space_group_name_H-M   'P 1'
_cell_length_a   8.57245350
_cell_length_b   8.57245350
_cell_length_c   8.57245350
_cell_angle_alpha   90.00000000
_cell_angle_beta   90.00000000
_cell_angle_gamma   90.00000000
_symmetry_Int_Tables_number   1
_chemical_formula_structural   V2ReO4
_chemical_formula_sum   'V16 Re8 O32'
_cell_volume   629.96353858
_cell_formula_units_Z   8
loop_
 _symmetry_equiv_pos_site_id
 _symmetry_equiv_pos_as_xyz
  1  'x, y, z'
loop_
 _atom_site_type_symbol
 _atom_site_label
 _atom_site_symmetry_multiplicity
 _atom_site_fract_x
 _atom_site_fract_y
 _atom_site_fract_z
 _atom_site_occupancy
  V  V1  1  0.375000  0.375000  0.625000  1.0
  V  V2  1  0.375000  0.125000  0.875000  1.0
  V  V3  1  0.125000  0.125000  0.625000  1.0
  V  V4  1  0.125000  0.375000  0.875000  1.0
  V  V5  1  0.375000  0.875000  0.125000  1.0
  V  V6  1  0.375000  0.625000  0.375000  1.0
  V  V7  1  0.125000  0.625000  0.125000  1.0
  V  V8  1  0.125000  0.875000  0.375000  1.0
  V  V9  1  0.875000  0.375000  0.125000  1.0
  V  V10  1  0.875000  0.125000  0.375000  1.0
  V  V11  1  0.625000  0.125000  0.125000  1.0
  V  V12  1  0.625000  0.375000  0.375000  1.0
  V  V13  1  0.875000  0.875000  0.625000  1.0
  V  V14  1  0.875000  0.625000  0.875000  1.0
  V  V15  1  0.625000  0.625000  0.625000  1.0
  V  V16  1  0.625000  0.875000  0.875000  1.0
  Re  Re17  1  0.250000  0.250000  0.250000  1.0
  Re  Re18  1  0.500000  0.500000  0.000000  1.0
  Re  Re19  1  0.250000  0.750000  0.750000  1.0
  Re  Re20  1  0.500000  0.000000  0.500000  1.0
  Re  Re21  1  0.750000  0.250000  0.750000  1.0
  Re  Re22  1  0.000000  0.500000  0.500000  1.0
  Re  Re23  1  0.750000  0.750000  0.250000  1.0
  Re  Re24  1  0.000000  0.000000  0.000000  1.0
  O  O25  1  0.362670  0.362670  0.862670  1.0
  O  O26  1  0.362670  0.637330  0.137330  1.0
  O  O27  1  0.137330  0.137330  0.862670  1.0
  O  O28  1  0.137330  0.862670  0.137330  1.0
  O  O29  1  0.387330  0.112670  0.112670  1.0
  O  O30  1  0.387330  0.387330  0.387330  1.0
  O  O31  1  0.112670  0.112670  0.387330  1.0
  O  O32  1  0.112670  0.387330  0.112670  1.0
  O  O33  1  0.362670  0.862670  0.362670  1.0
  O  O34  1  0.362670  0.137330  0.637330  1.0
  O  O35  1  0.137330  0.637330  0.362670  1.0
  O  O36  1  0.137330  0.362670  0.637330  1.0
  O  O37  1  0.387330  0.612670  0.612670  1.0
  O  O38  1  0.387330  0.887330  0.887330  1.0
  O  O39  1  0.112670  0.612670  0.887330  1.0
  O  O40  1  0.112670  0.887330  0.612670  1.0
  O  O41  1  0.862670  0.362670  0.362670  1.0
  O  O42  1  0.862670  0.637330  0.637330  1.0
  O  O43  1  0.637330  0.137330  0.362670  1.0
  O  O44  1  0.637330  0.862670  0.637330  1.0
  O  O45  1  0.887330  0.112670  0.612670  1.0
  O  O46  1  0.887330  0.387330  0.887330  1.0
  O  O47  1  0.612670  0.112670  0.887330  1.0
  O  O48  1  0.612670  0.387330  0.612670  1.0
  O  O49  1  0.862670  0.862670  0.862670  1.0
  O  O50  1  0.862670  0.137330  0.137330  1.0
  O  O51  1  0.637330  0.637330  0.862670  1.0
  O  O52  1  0.637330  0.362670  0.137330  1.0
  O  O53  1  0.887330  0.612670  0.112670  1.0
  O  O54  1  0.887330  0.887330  0.387330  1.0
  O  O55  1  0.612670  0.612670  0.387330  1.0
  O  O56  1  0.612670  0.887330  0.112670  1.0
