# generated using pymatgen
data_Cr2RuO4
_symmetry_space_group_name_H-M   'P 1'
_cell_length_a   8.33654853
_cell_length_b   8.33654853
_cell_length_c   8.33654853
_cell_angle_alpha   90.00000000
_cell_angle_beta   90.00000000
_cell_angle_gamma   90.00000000
_symmetry_Int_Tables_number   1
_chemical_formula_structural   Cr2RuO4
_chemical_formula_sum   'Cr16 Ru8 O32'
_cell_volume   579.37379562
_cell_formula_units_Z   8
loop_
 _symmetry_equiv_pos_site_id
 _symmetry_equiv_pos_as_xyz
  1  'x, y, z'
loop_
 _atom_site_type_symbol
 _atom_site_label
 _atom_site_symmetry_multiplicity
 _atom_site_fract_x
 _atom_site_fract_y
 _atom_site_fract_z
 _atom_site_occupancy
  Cr  Cr0  1  0.125000  0.125000  0.625000  1.0
  Cr  Cr1  1  0.375000  0.375000  0.625000  1.0
  Cr  Cr2  1  0.125000  0.375000  0.875000  1.0
  Cr  Cr3  1  0.375000  0.125000  0.875000  1.0
  Cr  Cr4  1  0.125000  0.625000  0.125000  1.0
  Cr  Cr5  1  0.375000  0.875000  0.125000  1.0
  Cr  Cr6  1  0.125000  0.875000  0.375000  1.0
  Cr  Cr7  1  0.375000  0.625000  0.375000  1.0
  Cr  Cr8  1  0.625000  0.125000  0.125000  1.0
  Cr  Cr9  1  0.875000  0.375000  0.125000  1.0
  Cr  Cr10  1  0.625000  0.375000  0.375000  1.0
  Cr  Cr11  1  0.875000  0.125000  0.375000  1.0
  Cr  Cr12  1  0.625000  0.625000  0.625000  1.0
  Cr  Cr13  1  0.875000  0.875000  0.625000  1.0
  Cr  Cr14  1  0.625000  0.875000  0.875000  1.0
  Cr  Cr15  1  0.875000  0.625000  0.875000  1.0
  Ru  Ru16  1  0.500000  0.500000  0.000000  1.0
  Ru  Ru17  1  0.250000  0.250000  0.250000  1.0
  Ru  Ru18  1  0.500000  0.000000  0.500000  1.0
  Ru  Ru19  1  0.250000  0.750000  0.750000  1.0
  Ru  Ru20  1  0.000000  0.500000  0.500000  1.0
  Ru  Ru21  1  0.750000  0.250000  0.750000  1.0
  Ru  Ru22  1  0.000000  0.000000  0.000000  1.0
  Ru  Ru23  1  0.750000  0.750000  0.250000  1.0
  O  O24  1  0.112307  0.112307  0.387693  1.0
  O  O25  1  0.362307  0.362307  0.862307  1.0
  O  O26  1  0.137693  0.862307  0.137693  1.0
  O  O27  1  0.362307  0.637693  0.137693  1.0
  O  O28  1  0.112307  0.387693  0.112307  1.0
  O  O29  1  0.387693  0.112307  0.112307  1.0
  O  O30  1  0.137693  0.137693  0.862307  1.0
  O  O31  1  0.387693  0.387693  0.387693  1.0
  O  O32  1  0.112307  0.612307  0.887693  1.0
  O  O33  1  0.362307  0.862307  0.362307  1.0
  O  O34  1  0.137693  0.362307  0.637693  1.0
  O  O35  1  0.362307  0.137693  0.637693  1.0
  O  O36  1  0.112307  0.887693  0.612307  1.0
  O  O37  1  0.387693  0.612307  0.612307  1.0
  O  O38  1  0.137693  0.637693  0.362307  1.0
  O  O39  1  0.387693  0.887693  0.887693  1.0
  O  O40  1  0.612307  0.112307  0.887693  1.0
  O  O41  1  0.862307  0.362307  0.362307  1.0
  O  O42  1  0.637693  0.862307  0.637693  1.0
  O  O43  1  0.862307  0.637693  0.637693  1.0
  O  O44  1  0.612307  0.387693  0.612307  1.0
  O  O45  1  0.887693  0.112307  0.612307  1.0
  O  O46  1  0.637693  0.137693  0.362307  1.0
  O  O47  1  0.887693  0.387693  0.887693  1.0
  O  O48  1  0.612307  0.612307  0.387693  1.0
  O  O49  1  0.862307  0.862307  0.862307  1.0
  O  O50  1  0.637693  0.362307  0.137693  1.0
  O  O51  1  0.862307  0.137693  0.137693  1.0
  O  O52  1  0.612307  0.887693  0.112307  1.0
  O  O53  1  0.887693  0.612307  0.112307  1.0
  O  O54  1  0.637693  0.637693  0.862307  1.0
  O  O55  1  0.887693  0.887693  0.387693  1.0
