# generated using pymatgen
data_Th2RuO4
_symmetry_space_group_name_H-M   'P 1'
_cell_length_a   9.80881556
_cell_length_b   9.80881556
_cell_length_c   9.80881556
_cell_angle_alpha   90.00000000
_cell_angle_beta   90.00000000
_cell_angle_gamma   90.00000000
_symmetry_Int_Tables_number   1
_chemical_formula_structural   Th2RuO4
_chemical_formula_sum   'Th16 Ru8 O32'
_cell_volume   943.73422549
_cell_formula_units_Z   8
loop_
 _symmetry_equiv_pos_site_id
 _symmetry_equiv_pos_as_xyz
  1  'x, y, z'
loop_
 _atom_site_type_symbol
 _atom_site_label
 _atom_site_symmetry_multiplicity
 _atom_site_fract_x
 _atom_site_fract_y
 _atom_site_fract_z
 _atom_site_occupancy
  Th  Th0  1  0.125000  0.125000  0.625000  1.0
  Th  Th1  1  0.375000  0.375000  0.625000  1.0
  Th  Th2  1  0.125000  0.375000  0.875000  1.0
  Th  Th3  1  0.375000  0.125000  0.875000  1.0
  Th  Th4  1  0.125000  0.625000  0.125000  1.0
  Th  Th5  1  0.375000  0.875000  0.125000  1.0
  Th  Th6  1  0.125000  0.875000  0.375000  1.0
  Th  Th7  1  0.375000  0.625000  0.375000  1.0
  Th  Th8  1  0.625000  0.125000  0.125000  1.0
  Th  Th9  1  0.875000  0.375000  0.125000  1.0
  Th  Th10  1  0.625000  0.375000  0.375000  1.0
  Th  Th11  1  0.875000  0.125000  0.375000  1.0
  Th  Th12  1  0.625000  0.625000  0.625000  1.0
  Th  Th13  1  0.875000  0.875000  0.625000  1.0
  Th  Th14  1  0.625000  0.875000  0.875000  1.0
  Th  Th15  1  0.875000  0.625000  0.875000  1.0
  Ru  Ru16  1  0.500000  0.500000  0.000000  1.0
  Ru  Ru17  1  0.250000  0.250000  0.250000  1.0
  Ru  Ru18  1  0.500000  0.000000  0.500000  1.0
  Ru  Ru19  1  0.250000  0.750000  0.750000  1.0
  Ru  Ru20  1  0.000000  0.500000  0.500000  1.0
  Ru  Ru21  1  0.750000  0.250000  0.750000  1.0
  Ru  Ru22  1  0.000000  0.000000  0.000000  1.0
  Ru  Ru23  1  0.750000  0.750000  0.250000  1.0
  O  O24  1  0.109870  0.109870  0.390130  1.0
  O  O25  1  0.359870  0.359870  0.859870  1.0
  O  O26  1  0.140130  0.859870  0.140130  1.0
  O  O27  1  0.359870  0.640130  0.140130  1.0
  O  O28  1  0.109870  0.390130  0.109870  1.0
  O  O29  1  0.390130  0.109870  0.109870  1.0
  O  O30  1  0.140130  0.140130  0.859870  1.0
  O  O31  1  0.390130  0.390130  0.390130  1.0
  O  O32  1  0.109870  0.609870  0.890130  1.0
  O  O33  1  0.359870  0.859870  0.359870  1.0
  O  O34  1  0.140130  0.359870  0.640130  1.0
  O  O35  1  0.359870  0.140130  0.640130  1.0
  O  O36  1  0.109870  0.890130  0.609870  1.0
  O  O37  1  0.390130  0.609870  0.609870  1.0
  O  O38  1  0.140130  0.640130  0.359870  1.0
  O  O39  1  0.390130  0.890130  0.890130  1.0
  O  O40  1  0.609870  0.109870  0.890130  1.0
  O  O41  1  0.859870  0.359870  0.359870  1.0
  O  O42  1  0.640130  0.859870  0.640130  1.0
  O  O43  1  0.859870  0.640130  0.640130  1.0
  O  O44  1  0.609870  0.390130  0.609870  1.0
  O  O45  1  0.890130  0.109870  0.609870  1.0
  O  O46  1  0.640130  0.140130  0.359870  1.0
  O  O47  1  0.890130  0.390130  0.890130  1.0
  O  O48  1  0.609870  0.609870  0.390130  1.0
  O  O49  1  0.859870  0.859870  0.859870  1.0
  O  O50  1  0.640130  0.359870  0.140130  1.0
  O  O51  1  0.859870  0.140130  0.140130  1.0
  O  O52  1  0.609870  0.890130  0.109870  1.0
  O  O53  1  0.890130  0.609870  0.109870  1.0
  O  O54  1  0.640130  0.640130  0.859870  1.0
  O  O55  1  0.890130  0.890130  0.390130  1.0
