# generated using pymatgen
data_Al2SbO4
_symmetry_space_group_name_H-M   'P 1'
_cell_length_a   8.67303237
_cell_length_b   8.67303237
_cell_length_c   8.67303237
_cell_angle_alpha   90.00000000
_cell_angle_beta   90.00000000
_cell_angle_gamma   90.00000000
_symmetry_Int_Tables_number   1
_chemical_formula_structural   Al2SbO4
_chemical_formula_sum   'Al16 Sb8 O32'
_cell_volume   652.39842122
_cell_formula_units_Z   8
loop_
 _symmetry_equiv_pos_site_id
 _symmetry_equiv_pos_as_xyz
  1  'x, y, z'
loop_
 _atom_site_type_symbol
 _atom_site_label
 _atom_site_symmetry_multiplicity
 _atom_site_fract_x
 _atom_site_fract_y
 _atom_site_fract_z
 _atom_site_occupancy
  Al  Al0  1  0.125000  0.125000  0.625000  1.0
  Al  Al1  1  0.375000  0.375000  0.625000  1.0
  Al  Al2  1  0.125000  0.375000  0.875000  1.0
  Al  Al3  1  0.375000  0.125000  0.875000  1.0
  Al  Al4  1  0.125000  0.625000  0.125000  1.0
  Al  Al5  1  0.375000  0.875000  0.125000  1.0
  Al  Al6  1  0.125000  0.875000  0.375000  1.0
  Al  Al7  1  0.375000  0.625000  0.375000  1.0
  Al  Al8  1  0.625000  0.125000  0.125000  1.0
  Al  Al9  1  0.875000  0.375000  0.125000  1.0
  Al  Al10  1  0.625000  0.375000  0.375000  1.0
  Al  Al11  1  0.875000  0.125000  0.375000  1.0
  Al  Al12  1  0.625000  0.625000  0.625000  1.0
  Al  Al13  1  0.875000  0.875000  0.625000  1.0
  Al  Al14  1  0.625000  0.875000  0.875000  1.0
  Al  Al15  1  0.875000  0.625000  0.875000  1.0
  Sb  Sb16  1  0.500000  0.500000  0.000000  1.0
  Sb  Sb17  1  0.250000  0.250000  0.250000  1.0
  Sb  Sb18  1  0.500000  0.000000  0.500000  1.0
  Sb  Sb19  1  0.250000  0.750000  0.750000  1.0
  Sb  Sb20  1  0.000000  0.500000  0.500000  1.0
  Sb  Sb21  1  0.750000  0.250000  0.750000  1.0
  Sb  Sb22  1  0.000000  0.000000  0.000000  1.0
  Sb  Sb23  1  0.750000  0.750000  0.250000  1.0
  O  O24  1  0.101077  0.101077  0.398923  1.0
  O  O25  1  0.351077  0.351077  0.851077  1.0
  O  O26  1  0.148923  0.851077  0.148923  1.0
  O  O27  1  0.351077  0.648923  0.148923  1.0
  O  O28  1  0.101077  0.398923  0.101077  1.0
  O  O29  1  0.398923  0.101077  0.101077  1.0
  O  O30  1  0.148923  0.148923  0.851077  1.0
  O  O31  1  0.398923  0.398923  0.398923  1.0
  O  O32  1  0.101077  0.601077  0.898923  1.0
  O  O33  1  0.351077  0.851077  0.351077  1.0
  O  O34  1  0.148923  0.351077  0.648923  1.0
  O  O35  1  0.351077  0.148923  0.648923  1.0
  O  O36  1  0.101077  0.898923  0.601077  1.0
  O  O37  1  0.398923  0.601077  0.601077  1.0
  O  O38  1  0.148923  0.648923  0.351077  1.0
  O  O39  1  0.398923  0.898923  0.898923  1.0
  O  O40  1  0.601077  0.101077  0.898923  1.0
  O  O41  1  0.851077  0.351077  0.351077  1.0
  O  O42  1  0.648923  0.851077  0.648923  1.0
  O  O43  1  0.851077  0.648923  0.648923  1.0
  O  O44  1  0.601077  0.398923  0.601077  1.0
  O  O45  1  0.898923  0.101077  0.601077  1.0
  O  O46  1  0.648923  0.148923  0.351077  1.0
  O  O47  1  0.898923  0.398923  0.898923  1.0
  O  O48  1  0.601077  0.601077  0.398923  1.0
  O  O49  1  0.851077  0.851077  0.851077  1.0
  O  O50  1  0.648923  0.351077  0.148923  1.0
  O  O51  1  0.851077  0.148923  0.148923  1.0
  O  O52  1  0.601077  0.898923  0.101077  1.0
  O  O53  1  0.898923  0.601077  0.101077  1.0
  O  O54  1  0.648923  0.648923  0.851077  1.0
  O  O55  1  0.898923  0.898923  0.398923  1.0
