# generated using pymatgen
data_Sc(FeO2)2
_symmetry_space_group_name_H-M   'P 1'
_cell_length_a   8.34354889
_cell_length_b   8.34354889
_cell_length_c   8.34354889
_cell_angle_alpha   90.00000000
_cell_angle_beta   90.00000000
_cell_angle_gamma   90.00000000
_symmetry_Int_Tables_number   1
_chemical_formula_structural   Sc(FeO2)2
_chemical_formula_sum   'Sc8 Fe16 O32'
_cell_volume   580.83455489
_cell_formula_units_Z   8
loop_
 _symmetry_equiv_pos_site_id
 _symmetry_equiv_pos_as_xyz
  1  'x, y, z'
loop_
 _atom_site_type_symbol
 _atom_site_label
 _atom_site_symmetry_multiplicity
 _atom_site_fract_x
 _atom_site_fract_y
 _atom_site_fract_z
 _atom_site_occupancy
  Sc  Sc0  1  0.500000  0.500000  0.000000  1.0
  Sc  Sc1  1  0.250000  0.250000  0.250000  1.0
  Sc  Sc2  1  0.500000  0.000000  0.500000  1.0
  Sc  Sc3  1  0.250000  0.750000  0.750000  1.0
  Sc  Sc4  1  0.000000  0.500000  0.500000  1.0
  Sc  Sc5  1  0.750000  0.250000  0.750000  1.0
  Sc  Sc6  1  0.000000  0.000000  0.000000  1.0
  Sc  Sc7  1  0.750000  0.750000  0.250000  1.0
  Fe  Fe8  1  0.125000  0.125000  0.625000  1.0
  Fe  Fe9  1  0.375000  0.375000  0.625000  1.0
  Fe  Fe10  1  0.125000  0.375000  0.875000  1.0
  Fe  Fe11  1  0.375000  0.125000  0.875000  1.0
  Fe  Fe12  1  0.125000  0.625000  0.125000  1.0
  Fe  Fe13  1  0.375000  0.875000  0.125000  1.0
  Fe  Fe14  1  0.125000  0.875000  0.375000  1.0
  Fe  Fe15  1  0.375000  0.625000  0.375000  1.0
  Fe  Fe16  1  0.625000  0.125000  0.125000  1.0
  Fe  Fe17  1  0.875000  0.375000  0.125000  1.0
  Fe  Fe18  1  0.625000  0.375000  0.375000  1.0
  Fe  Fe19  1  0.875000  0.125000  0.375000  1.0
  Fe  Fe20  1  0.625000  0.625000  0.625000  1.0
  Fe  Fe21  1  0.875000  0.875000  0.625000  1.0
  Fe  Fe22  1  0.625000  0.875000  0.875000  1.0
  Fe  Fe23  1  0.875000  0.625000  0.875000  1.0
  O  O24  1  0.111157  0.111157  0.388843  1.0
  O  O25  1  0.361157  0.361157  0.861157  1.0
  O  O26  1  0.138843  0.861157  0.138843  1.0
  O  O27  1  0.361157  0.638843  0.138843  1.0
  O  O28  1  0.111157  0.388843  0.111157  1.0
  O  O29  1  0.388843  0.111157  0.111157  1.0
  O  O30  1  0.138843  0.138843  0.861157  1.0
  O  O31  1  0.388843  0.388843  0.388843  1.0
  O  O32  1  0.111157  0.611157  0.888843  1.0
  O  O33  1  0.361157  0.861157  0.361157  1.0
  O  O34  1  0.138843  0.361157  0.638843  1.0
  O  O35  1  0.361157  0.138843  0.638843  1.0
  O  O36  1  0.111157  0.888843  0.611157  1.0
  O  O37  1  0.388843  0.611157  0.611157  1.0
  O  O38  1  0.138843  0.638843  0.361157  1.0
  O  O39  1  0.388843  0.888843  0.888843  1.0
  O  O40  1  0.611157  0.111157  0.888843  1.0
  O  O41  1  0.861157  0.361157  0.361157  1.0
  O  O42  1  0.638843  0.861157  0.638843  1.0
  O  O43  1  0.861157  0.638843  0.638843  1.0
  O  O44  1  0.611157  0.388843  0.611157  1.0
  O  O45  1  0.888843  0.111157  0.611157  1.0
  O  O46  1  0.638843  0.138843  0.361157  1.0
  O  O47  1  0.888843  0.388843  0.888843  1.0
  O  O48  1  0.611157  0.611157  0.388843  1.0
  O  O49  1  0.861157  0.861157  0.861157  1.0
  O  O50  1  0.638843  0.361157  0.138843  1.0
  O  O51  1  0.861157  0.138843  0.138843  1.0
  O  O52  1  0.611157  0.888843  0.111157  1.0
  O  O53  1  0.888843  0.611157  0.111157  1.0
  O  O54  1  0.638843  0.638843  0.861157  1.0
  O  O55  1  0.888843  0.888843  0.388843  1.0
