# generated using pymatgen
data_Sc3O4
_symmetry_space_group_name_H-M   'P 1'
_cell_length_a   8.92218851
_cell_length_b   8.92218851
_cell_length_c   8.92218851
_cell_angle_alpha   90.00000000
_cell_angle_beta   90.00000000
_cell_angle_gamma   90.00000000
_symmetry_Int_Tables_number   1
_chemical_formula_structural   Sc3O4
_chemical_formula_sum   'Sc24 O32'
_cell_volume   710.25481229
_cell_formula_units_Z   8
loop_
 _symmetry_equiv_pos_site_id
 _symmetry_equiv_pos_as_xyz
  1  'x, y, z'
loop_
 _atom_site_type_symbol
 _atom_site_label
 _atom_site_symmetry_multiplicity
 _atom_site_fract_x
 _atom_site_fract_y
 _atom_site_fract_z
 _atom_site_occupancy
  Sc  Sc1  1  0.250000  0.250000  0.250000  1.0
  Sc  Sc2  1  0.500000  0.500000  0.000000  1.0
  Sc  Sc3  1  0.375000  0.375000  0.625000  1.0
  Sc  Sc4  1  0.375000  0.125000  0.875000  1.0
  Sc  Sc5  1  0.125000  0.125000  0.625000  1.0
  Sc  Sc6  1  0.125000  0.375000  0.875000  1.0
  Sc  Sc7  1  0.250000  0.750000  0.750000  1.0
  Sc  Sc8  1  0.500000  0.000000  0.500000  1.0
  Sc  Sc9  1  0.375000  0.875000  0.125000  1.0
  Sc  Sc10  1  0.375000  0.625000  0.375000  1.0
  Sc  Sc11  1  0.125000  0.625000  0.125000  1.0
  Sc  Sc12  1  0.125000  0.875000  0.375000  1.0
  Sc  Sc13  1  0.750000  0.250000  0.750000  1.0
  Sc  Sc14  1  0.000000  0.500000  0.500000  1.0
  Sc  Sc15  1  0.875000  0.375000  0.125000  1.0
  Sc  Sc16  1  0.875000  0.125000  0.375000  1.0
  Sc  Sc17  1  0.625000  0.125000  0.125000  1.0
  Sc  Sc18  1  0.625000  0.375000  0.375000  1.0
  Sc  Sc19  1  0.750000  0.750000  0.250000  1.0
  Sc  Sc20  1  0.000000  0.000000  0.000000  1.0
  Sc  Sc21  1  0.875000  0.875000  0.625000  1.0
  Sc  Sc22  1  0.875000  0.625000  0.875000  1.0
  Sc  Sc23  1  0.625000  0.625000  0.625000  1.0
  Sc  Sc24  1  0.625000  0.875000  0.875000  1.0
  O  O25  1  0.368050  0.368050  0.868050  1.0
  O  O26  1  0.368050  0.631950  0.131950  1.0
  O  O27  1  0.131950  0.131950  0.868050  1.0
  O  O28  1  0.131950  0.868050  0.131950  1.0
  O  O29  1  0.381950  0.118050  0.118050  1.0
  O  O30  1  0.381950  0.381950  0.381950  1.0
  O  O31  1  0.118050  0.118050  0.381950  1.0
  O  O32  1  0.118050  0.381950  0.118050  1.0
  O  O33  1  0.368050  0.868050  0.368050  1.0
  O  O34  1  0.368050  0.131950  0.631950  1.0
  O  O35  1  0.131950  0.631950  0.368050  1.0
  O  O36  1  0.131950  0.368050  0.631950  1.0
  O  O37  1  0.381950  0.618050  0.618050  1.0
  O  O38  1  0.381950  0.881950  0.881950  1.0
  O  O39  1  0.118050  0.618050  0.881950  1.0
  O  O40  1  0.118050  0.881950  0.618050  1.0
  O  O41  1  0.868050  0.368050  0.368050  1.0
  O  O42  1  0.868050  0.631950  0.631950  1.0
  O  O43  1  0.631950  0.131950  0.368050  1.0
  O  O44  1  0.631950  0.868050  0.631950  1.0
  O  O45  1  0.881950  0.118050  0.618050  1.0
  O  O46  1  0.881950  0.381950  0.881950  1.0
  O  O47  1  0.618050  0.118050  0.881950  1.0
  O  O48  1  0.618050  0.381950  0.618050  1.0
  O  O49  1  0.868050  0.868050  0.868050  1.0
  O  O50  1  0.868050  0.131950  0.131950  1.0
  O  O51  1  0.631950  0.631950  0.868050  1.0
  O  O52  1  0.631950  0.368050  0.131950  1.0
  O  O53  1  0.881950  0.618050  0.118050  1.0
  O  O54  1  0.881950  0.881950  0.381950  1.0
  O  O55  1  0.618050  0.618050  0.381950  1.0
  O  O56  1  0.618050  0.881950  0.118050  1.0
