# generated using pymatgen
data_Lu2SnO4
_symmetry_space_group_name_H-M   'P 1'
_cell_length_a   9.44291609
_cell_length_b   9.44291609
_cell_length_c   9.44291609
_cell_angle_alpha   90.00000000
_cell_angle_beta   90.00000000
_cell_angle_gamma   90.00000000
_symmetry_Int_Tables_number   1
_chemical_formula_structural   Lu2SnO4
_chemical_formula_sum   'Lu16 Sn8 O32'
_cell_volume   842.01221414
_cell_formula_units_Z   8
loop_
 _symmetry_equiv_pos_site_id
 _symmetry_equiv_pos_as_xyz
  1  'x, y, z'
loop_
 _atom_site_type_symbol
 _atom_site_label
 _atom_site_symmetry_multiplicity
 _atom_site_fract_x
 _atom_site_fract_y
 _atom_site_fract_z
 _atom_site_occupancy
  Lu  Lu0  1  0.125000  0.125000  0.625000  1.0
  Lu  Lu1  1  0.375000  0.375000  0.625000  1.0
  Lu  Lu2  1  0.125000  0.375000  0.875000  1.0
  Lu  Lu3  1  0.375000  0.125000  0.875000  1.0
  Lu  Lu4  1  0.125000  0.625000  0.125000  1.0
  Lu  Lu5  1  0.375000  0.875000  0.125000  1.0
  Lu  Lu6  1  0.125000  0.875000  0.375000  1.0
  Lu  Lu7  1  0.375000  0.625000  0.375000  1.0
  Lu  Lu8  1  0.625000  0.125000  0.125000  1.0
  Lu  Lu9  1  0.875000  0.375000  0.125000  1.0
  Lu  Lu10  1  0.625000  0.375000  0.375000  1.0
  Lu  Lu11  1  0.875000  0.125000  0.375000  1.0
  Lu  Lu12  1  0.625000  0.625000  0.625000  1.0
  Lu  Lu13  1  0.875000  0.875000  0.625000  1.0
  Lu  Lu14  1  0.625000  0.875000  0.875000  1.0
  Lu  Lu15  1  0.875000  0.625000  0.875000  1.0
  Sn  Sn16  1  0.500000  0.500000  0.000000  1.0
  Sn  Sn17  1  0.250000  0.250000  0.250000  1.0
  Sn  Sn18  1  0.500000  0.000000  0.500000  1.0
  Sn  Sn19  1  0.250000  0.750000  0.750000  1.0
  Sn  Sn20  1  0.000000  0.500000  0.500000  1.0
  Sn  Sn21  1  0.750000  0.250000  0.750000  1.0
  Sn  Sn22  1  0.000000  0.000000  0.000000  1.0
  Sn  Sn23  1  0.750000  0.750000  0.250000  1.0
  O  O24  1  0.108037  0.108037  0.391963  1.0
  O  O25  1  0.358037  0.358037  0.858037  1.0
  O  O26  1  0.141963  0.858037  0.141963  1.0
  O  O27  1  0.358037  0.641963  0.141963  1.0
  O  O28  1  0.108037  0.391963  0.108037  1.0
  O  O29  1  0.391963  0.108037  0.108037  1.0
  O  O30  1  0.141963  0.141963  0.858037  1.0
  O  O31  1  0.391963  0.391963  0.391963  1.0
  O  O32  1  0.108037  0.608037  0.891963  1.0
  O  O33  1  0.358037  0.858037  0.358037  1.0
  O  O34  1  0.141963  0.358037  0.641963  1.0
  O  O35  1  0.358037  0.141963  0.641963  1.0
  O  O36  1  0.108037  0.891963  0.608037  1.0
  O  O37  1  0.391963  0.608037  0.608037  1.0
  O  O38  1  0.141963  0.641963  0.358037  1.0
  O  O39  1  0.391963  0.891963  0.891963  1.0
  O  O40  1  0.608037  0.108037  0.891963  1.0
  O  O41  1  0.858037  0.358037  0.358037  1.0
  O  O42  1  0.641963  0.858037  0.641963  1.0
  O  O43  1  0.858037  0.641963  0.641963  1.0
  O  O44  1  0.608037  0.391963  0.608037  1.0
  O  O45  1  0.891963  0.108037  0.608037  1.0
  O  O46  1  0.641963  0.141963  0.358037  1.0
  O  O47  1  0.891963  0.391963  0.891963  1.0
  O  O48  1  0.608037  0.608037  0.391963  1.0
  O  O49  1  0.858037  0.858037  0.858037  1.0
  O  O50  1  0.641963  0.358037  0.141963  1.0
  O  O51  1  0.858037  0.141963  0.141963  1.0
  O  O52  1  0.608037  0.891963  0.108037  1.0
  O  O53  1  0.891963  0.608037  0.108037  1.0
  O  O54  1  0.641963  0.641963  0.858037  1.0
  O  O55  1  0.891963  0.891963  0.391963  1.0
