# generated using pymatgen
data_Y2TaO4
_symmetry_space_group_name_H-M   'P 1'
_cell_length_a   9.28138461
_cell_length_b   9.28138461
_cell_length_c   9.28138461
_cell_angle_alpha   90.00000000
_cell_angle_beta   90.00000000
_cell_angle_gamma   90.00000000
_symmetry_Int_Tables_number   1
_chemical_formula_structural   Y2TaO4
_chemical_formula_sum   'Y16 Ta8 O32'
_cell_volume   799.53652784
_cell_formula_units_Z   8
loop_
 _symmetry_equiv_pos_site_id
 _symmetry_equiv_pos_as_xyz
  1  'x, y, z'
loop_
 _atom_site_type_symbol
 _atom_site_label
 _atom_site_symmetry_multiplicity
 _atom_site_fract_x
 _atom_site_fract_y
 _atom_site_fract_z
 _atom_site_occupancy
  Y  Y0  1  0.125000  0.125000  0.625000  1.0
  Y  Y1  1  0.375000  0.375000  0.625000  1.0
  Y  Y2  1  0.125000  0.375000  0.875000  1.0
  Y  Y3  1  0.375000  0.125000  0.875000  1.0
  Y  Y4  1  0.125000  0.625000  0.125000  1.0
  Y  Y5  1  0.375000  0.875000  0.125000  1.0
  Y  Y6  1  0.125000  0.875000  0.375000  1.0
  Y  Y7  1  0.375000  0.625000  0.375000  1.0
  Y  Y8  1  0.625000  0.125000  0.125000  1.0
  Y  Y9  1  0.875000  0.375000  0.125000  1.0
  Y  Y10  1  0.625000  0.375000  0.375000  1.0
  Y  Y11  1  0.875000  0.125000  0.375000  1.0
  Y  Y12  1  0.625000  0.625000  0.625000  1.0
  Y  Y13  1  0.875000  0.875000  0.625000  1.0
  Y  Y14  1  0.625000  0.875000  0.875000  1.0
  Y  Y15  1  0.875000  0.625000  0.875000  1.0
  Ta  Ta16  1  0.500000  0.500000  0.000000  1.0
  Ta  Ta17  1  0.250000  0.250000  0.250000  1.0
  Ta  Ta18  1  0.500000  0.000000  0.500000  1.0
  Ta  Ta19  1  0.250000  0.750000  0.750000  1.0
  Ta  Ta20  1  0.000000  0.500000  0.500000  1.0
  Ta  Ta21  1  0.750000  0.250000  0.750000  1.0
  Ta  Ta22  1  0.000000  0.000000  0.000000  1.0
  Ta  Ta23  1  0.750000  0.750000  0.250000  1.0
  O  O24  1  0.129790  0.129790  0.370210  1.0
  O  O25  1  0.379790  0.379790  0.879790  1.0
  O  O26  1  0.120210  0.879790  0.120210  1.0
  O  O27  1  0.379790  0.620210  0.120210  1.0
  O  O28  1  0.129790  0.370210  0.129790  1.0
  O  O29  1  0.370210  0.129790  0.129790  1.0
  O  O30  1  0.120210  0.120210  0.879790  1.0
  O  O31  1  0.370210  0.370210  0.370210  1.0
  O  O32  1  0.129790  0.629790  0.870210  1.0
  O  O33  1  0.379790  0.879790  0.379790  1.0
  O  O34  1  0.120210  0.379790  0.620210  1.0
  O  O35  1  0.379790  0.120210  0.620210  1.0
  O  O36  1  0.129790  0.870210  0.629790  1.0
  O  O37  1  0.370210  0.629790  0.629790  1.0
  O  O38  1  0.120210  0.620210  0.379790  1.0
  O  O39  1  0.370210  0.870210  0.870210  1.0
  O  O40  1  0.629790  0.129790  0.870210  1.0
  O  O41  1  0.879790  0.379790  0.379790  1.0
  O  O42  1  0.620210  0.879790  0.620210  1.0
  O  O43  1  0.879790  0.620210  0.620210  1.0
  O  O44  1  0.629790  0.370210  0.629790  1.0
  O  O45  1  0.870210  0.129790  0.629790  1.0
  O  O46  1  0.620210  0.120210  0.379790  1.0
  O  O47  1  0.870210  0.370210  0.870210  1.0
  O  O48  1  0.629790  0.629790  0.370210  1.0
  O  O49  1  0.879790  0.879790  0.879790  1.0
  O  O50  1  0.620210  0.379790  0.120210  1.0
  O  O51  1  0.879790  0.120210  0.120210  1.0
  O  O52  1  0.629790  0.870210  0.129790  1.0
  O  O53  1  0.870210  0.629790  0.129790  1.0
  O  O54  1  0.620210  0.620210  0.879790  1.0
  O  O55  1  0.870210  0.870210  0.370210  1.0
