# generated using pymatgen
data_Tb(BO2)2
_symmetry_space_group_name_H-M   'P 1'
_cell_length_a   8.18570852
_cell_length_b   8.18570852
_cell_length_c   8.18570852
_cell_angle_alpha   90.00000000
_cell_angle_beta   90.00000000
_cell_angle_gamma   90.00000000
_symmetry_Int_Tables_number   1
_chemical_formula_structural   Tb(BO2)2
_chemical_formula_sum   'Tb8 B16 O32'
_cell_volume   548.49014326
_cell_formula_units_Z   8
loop_
 _symmetry_equiv_pos_site_id
 _symmetry_equiv_pos_as_xyz
  1  'x, y, z'
loop_
 _atom_site_type_symbol
 _atom_site_label
 _atom_site_symmetry_multiplicity
 _atom_site_fract_x
 _atom_site_fract_y
 _atom_site_fract_z
 _atom_site_occupancy
  Tb  Tb0  1  0.500000  0.500000  0.000000  1.0
  Tb  Tb1  1  0.250000  0.250000  0.250000  1.0
  Tb  Tb2  1  0.500000  0.000000  0.500000  1.0
  Tb  Tb3  1  0.250000  0.750000  0.750000  1.0
  Tb  Tb4  1  0.000000  0.500000  0.500000  1.0
  Tb  Tb5  1  0.750000  0.250000  0.750000  1.0
  Tb  Tb6  1  0.000000  0.000000  0.000000  1.0
  Tb  Tb7  1  0.750000  0.750000  0.250000  1.0
  B  B8  1  0.125000  0.125000  0.625000  1.0
  B  B9  1  0.375000  0.375000  0.625000  1.0
  B  B10  1  0.125000  0.375000  0.875000  1.0
  B  B11  1  0.375000  0.125000  0.875000  1.0
  B  B12  1  0.125000  0.625000  0.125000  1.0
  B  B13  1  0.375000  0.875000  0.125000  1.0
  B  B14  1  0.125000  0.875000  0.375000  1.0
  B  B15  1  0.375000  0.625000  0.375000  1.0
  B  B16  1  0.625000  0.125000  0.125000  1.0
  B  B17  1  0.875000  0.375000  0.125000  1.0
  B  B18  1  0.625000  0.375000  0.375000  1.0
  B  B19  1  0.875000  0.125000  0.375000  1.0
  B  B20  1  0.625000  0.625000  0.625000  1.0
  B  B21  1  0.875000  0.875000  0.625000  1.0
  B  B22  1  0.625000  0.875000  0.875000  1.0
  B  B23  1  0.875000  0.625000  0.875000  1.0
  O  O24  1  0.100797  0.100797  0.399203  1.0
  O  O25  1  0.350797  0.350797  0.850797  1.0
  O  O26  1  0.149203  0.850797  0.149203  1.0
  O  O27  1  0.350797  0.649203  0.149203  1.0
  O  O28  1  0.100797  0.399203  0.100797  1.0
  O  O29  1  0.399203  0.100797  0.100797  1.0
  O  O30  1  0.149203  0.149203  0.850797  1.0
  O  O31  1  0.399203  0.399203  0.399203  1.0
  O  O32  1  0.100797  0.600797  0.899203  1.0
  O  O33  1  0.350797  0.850797  0.350797  1.0
  O  O34  1  0.149203  0.350797  0.649203  1.0
  O  O35  1  0.350797  0.149203  0.649203  1.0
  O  O36  1  0.100797  0.899203  0.600797  1.0
  O  O37  1  0.399203  0.600797  0.600797  1.0
  O  O38  1  0.149203  0.649203  0.350797  1.0
  O  O39  1  0.399203  0.899203  0.899203  1.0
  O  O40  1  0.600797  0.100797  0.899203  1.0
  O  O41  1  0.850797  0.350797  0.350797  1.0
  O  O42  1  0.649203  0.850797  0.649203  1.0
  O  O43  1  0.850797  0.649203  0.649203  1.0
  O  O44  1  0.600797  0.399203  0.600797  1.0
  O  O45  1  0.899203  0.100797  0.600797  1.0
  O  O46  1  0.649203  0.149203  0.350797  1.0
  O  O47  1  0.899203  0.399203  0.899203  1.0
  O  O48  1  0.600797  0.600797  0.399203  1.0
  O  O49  1  0.850797  0.850797  0.850797  1.0
  O  O50  1  0.649203  0.350797  0.149203  1.0
  O  O51  1  0.850797  0.149203  0.149203  1.0
  O  O52  1  0.600797  0.899203  0.100797  1.0
  O  O53  1  0.899203  0.600797  0.100797  1.0
  O  O54  1  0.649203  0.649203  0.850797  1.0
  O  O55  1  0.899203  0.899203  0.399203  1.0
