# generated using pymatgen
data_Li2TcO4
_symmetry_space_group_name_H-M   'P 1'
_cell_length_a   8.44484901
_cell_length_b   8.44484901
_cell_length_c   8.44484901
_cell_angle_alpha   90.00000000
_cell_angle_beta   90.00000000
_cell_angle_gamma   90.00000000
_symmetry_Int_Tables_number   1
_chemical_formula_structural   Li2TcO4
_chemical_formula_sum   'Li16 Tc8 O32'
_cell_volume   602.24841645
_cell_formula_units_Z   8
loop_
 _symmetry_equiv_pos_site_id
 _symmetry_equiv_pos_as_xyz
  1  'x, y, z'
loop_
 _atom_site_type_symbol
 _atom_site_label
 _atom_site_symmetry_multiplicity
 _atom_site_fract_x
 _atom_site_fract_y
 _atom_site_fract_z
 _atom_site_occupancy
  Li  Li0  1  0.125000  0.125000  0.625000  1.0
  Li  Li1  1  0.375000  0.375000  0.625000  1.0
  Li  Li2  1  0.125000  0.375000  0.875000  1.0
  Li  Li3  1  0.375000  0.125000  0.875000  1.0
  Li  Li4  1  0.125000  0.625000  0.125000  1.0
  Li  Li5  1  0.375000  0.875000  0.125000  1.0
  Li  Li6  1  0.125000  0.875000  0.375000  1.0
  Li  Li7  1  0.375000  0.625000  0.375000  1.0
  Li  Li8  1  0.625000  0.125000  0.125000  1.0
  Li  Li9  1  0.875000  0.375000  0.125000  1.0
  Li  Li10  1  0.625000  0.375000  0.375000  1.0
  Li  Li11  1  0.875000  0.125000  0.375000  1.0
  Li  Li12  1  0.625000  0.625000  0.625000  1.0
  Li  Li13  1  0.875000  0.875000  0.625000  1.0
  Li  Li14  1  0.625000  0.875000  0.875000  1.0
  Li  Li15  1  0.875000  0.625000  0.875000  1.0
  Tc  Tc16  1  0.500000  0.500000  0.000000  1.0
  Tc  Tc17  1  0.250000  0.250000  0.250000  1.0
  Tc  Tc18  1  0.500000  0.000000  0.500000  1.0
  Tc  Tc19  1  0.250000  0.750000  0.750000  1.0
  Tc  Tc20  1  0.000000  0.500000  0.500000  1.0
  Tc  Tc21  1  0.750000  0.250000  0.750000  1.0
  Tc  Tc22  1  0.000000  0.000000  0.000000  1.0
  Tc  Tc23  1  0.750000  0.750000  0.250000  1.0
  O  O24  1  0.128413  0.128413  0.371587  1.0
  O  O25  1  0.378413  0.378413  0.878413  1.0
  O  O26  1  0.121587  0.878413  0.121587  1.0
  O  O27  1  0.378413  0.621587  0.121587  1.0
  O  O28  1  0.128413  0.371587  0.128413  1.0
  O  O29  1  0.371587  0.128413  0.128413  1.0
  O  O30  1  0.121587  0.121587  0.878413  1.0
  O  O31  1  0.371587  0.371587  0.371587  1.0
  O  O32  1  0.128413  0.628413  0.871587  1.0
  O  O33  1  0.378413  0.878413  0.378413  1.0
  O  O34  1  0.121587  0.378413  0.621587  1.0
  O  O35  1  0.378413  0.121587  0.621587  1.0
  O  O36  1  0.128413  0.871587  0.628413  1.0
  O  O37  1  0.371587  0.628413  0.628413  1.0
  O  O38  1  0.121587  0.621587  0.378413  1.0
  O  O39  1  0.371587  0.871587  0.871587  1.0
  O  O40  1  0.628413  0.128413  0.871587  1.0
  O  O41  1  0.878413  0.378413  0.378413  1.0
  O  O42  1  0.621587  0.878413  0.621587  1.0
  O  O43  1  0.878413  0.621587  0.621587  1.0
  O  O44  1  0.628413  0.371587  0.628413  1.0
  O  O45  1  0.871587  0.128413  0.628413  1.0
  O  O46  1  0.621587  0.121587  0.378413  1.0
  O  O47  1  0.871587  0.371587  0.871587  1.0
  O  O48  1  0.628413  0.628413  0.371587  1.0
  O  O49  1  0.878413  0.878413  0.878413  1.0
  O  O50  1  0.621587  0.378413  0.121587  1.0
  O  O51  1  0.878413  0.121587  0.121587  1.0
  O  O52  1  0.628413  0.871587  0.128413  1.0
  O  O53  1  0.871587  0.628413  0.128413  1.0
  O  O54  1  0.621587  0.621587  0.878413  1.0
  O  O55  1  0.871587  0.871587  0.371587  1.0
