# generated using pymatgen
data_Tc(PbO2)2
_symmetry_space_group_name_H-M   'P 1'
_cell_length_a   9.95071775
_cell_length_b   9.95071775
_cell_length_c   9.95071775
_cell_angle_alpha   90.00000000
_cell_angle_beta   90.00000000
_cell_angle_gamma   90.00000000
_symmetry_Int_Tables_number   1
_chemical_formula_structural   Tc(PbO2)2
_chemical_formula_sum   'Tc8 Pb16 O32'
_cell_volume   985.28806806
_cell_formula_units_Z   8
loop_
 _symmetry_equiv_pos_site_id
 _symmetry_equiv_pos_as_xyz
  1  'x, y, z'
loop_
 _atom_site_type_symbol
 _atom_site_label
 _atom_site_symmetry_multiplicity
 _atom_site_fract_x
 _atom_site_fract_y
 _atom_site_fract_z
 _atom_site_occupancy
  Tc  Tc0  1  0.500000  0.500000  0.000000  1.0
  Tc  Tc1  1  0.250000  0.250000  0.250000  1.0
  Tc  Tc2  1  0.500000  0.000000  0.500000  1.0
  Tc  Tc3  1  0.250000  0.750000  0.750000  1.0
  Tc  Tc4  1  0.000000  0.500000  0.500000  1.0
  Tc  Tc5  1  0.750000  0.250000  0.750000  1.0
  Tc  Tc6  1  0.000000  0.000000  0.000000  1.0
  Tc  Tc7  1  0.750000  0.750000  0.250000  1.0
  Pb  Pb8  1  0.125000  0.125000  0.625000  1.0
  Pb  Pb9  1  0.375000  0.375000  0.625000  1.0
  Pb  Pb10  1  0.125000  0.375000  0.875000  1.0
  Pb  Pb11  1  0.375000  0.125000  0.875000  1.0
  Pb  Pb12  1  0.125000  0.625000  0.125000  1.0
  Pb  Pb13  1  0.375000  0.875000  0.125000  1.0
  Pb  Pb14  1  0.125000  0.875000  0.375000  1.0
  Pb  Pb15  1  0.375000  0.625000  0.375000  1.0
  Pb  Pb16  1  0.625000  0.125000  0.125000  1.0
  Pb  Pb17  1  0.875000  0.375000  0.125000  1.0
  Pb  Pb18  1  0.625000  0.375000  0.375000  1.0
  Pb  Pb19  1  0.875000  0.125000  0.375000  1.0
  Pb  Pb20  1  0.625000  0.625000  0.625000  1.0
  Pb  Pb21  1  0.875000  0.875000  0.625000  1.0
  Pb  Pb22  1  0.625000  0.875000  0.875000  1.0
  Pb  Pb23  1  0.875000  0.625000  0.875000  1.0
  O  O24  1  0.143527  0.143527  0.356473  1.0
  O  O25  1  0.393527  0.393527  0.893527  1.0
  O  O26  1  0.106473  0.893527  0.106473  1.0
  O  O27  1  0.393527  0.606473  0.106473  1.0
  O  O28  1  0.143527  0.356473  0.143527  1.0
  O  O29  1  0.356473  0.143527  0.143527  1.0
  O  O30  1  0.106473  0.106473  0.893527  1.0
  O  O31  1  0.356473  0.356473  0.356473  1.0
  O  O32  1  0.143527  0.643527  0.856473  1.0
  O  O33  1  0.393527  0.893527  0.393527  1.0
  O  O34  1  0.106473  0.393527  0.606473  1.0
  O  O35  1  0.393527  0.106473  0.606473  1.0
  O  O36  1  0.143527  0.856473  0.643527  1.0
  O  O37  1  0.356473  0.643527  0.643527  1.0
  O  O38  1  0.106473  0.606473  0.393527  1.0
  O  O39  1  0.356473  0.856473  0.856473  1.0
  O  O40  1  0.643527  0.143527  0.856473  1.0
  O  O41  1  0.893527  0.393527  0.393527  1.0
  O  O42  1  0.606473  0.893527  0.606473  1.0
  O  O43  1  0.893527  0.606473  0.606473  1.0
  O  O44  1  0.643527  0.356473  0.643527  1.0
  O  O45  1  0.856473  0.143527  0.643527  1.0
  O  O46  1  0.606473  0.106473  0.393527  1.0
  O  O47  1  0.856473  0.356473  0.856473  1.0
  O  O48  1  0.643527  0.643527  0.356473  1.0
  O  O49  1  0.893527  0.893527  0.893527  1.0
  O  O50  1  0.606473  0.393527  0.106473  1.0
  O  O51  1  0.893527  0.106473  0.106473  1.0
  O  O52  1  0.643527  0.856473  0.143527  1.0
  O  O53  1  0.856473  0.643527  0.143527  1.0
  O  O54  1  0.606473  0.606473  0.893527  1.0
  O  O55  1  0.856473  0.856473  0.356473  1.0
