# generated using pymatgen
data_Sm2TcO4
_symmetry_space_group_name_H-M   'P 1'
_cell_length_a   9.38295343
_cell_length_b   9.38295343
_cell_length_c   9.38295343
_cell_angle_alpha   90.00000000
_cell_angle_beta   90.00000000
_cell_angle_gamma   90.00000000
_symmetry_Int_Tables_number   1
_chemical_formula_structural   Sm2TcO4
_chemical_formula_sum   'Sm16 Tc8 O32'
_cell_volume   826.07348556
_cell_formula_units_Z   8
loop_
 _symmetry_equiv_pos_site_id
 _symmetry_equiv_pos_as_xyz
  1  'x, y, z'
loop_
 _atom_site_type_symbol
 _atom_site_label
 _atom_site_symmetry_multiplicity
 _atom_site_fract_x
 _atom_site_fract_y
 _atom_site_fract_z
 _atom_site_occupancy
  Sm  Sm0  1  0.125000  0.125000  0.625000  1.0
  Sm  Sm1  1  0.375000  0.375000  0.625000  1.0
  Sm  Sm2  1  0.125000  0.375000  0.875000  1.0
  Sm  Sm3  1  0.375000  0.125000  0.875000  1.0
  Sm  Sm4  1  0.125000  0.625000  0.125000  1.0
  Sm  Sm5  1  0.375000  0.875000  0.125000  1.0
  Sm  Sm6  1  0.125000  0.875000  0.375000  1.0
  Sm  Sm7  1  0.375000  0.625000  0.375000  1.0
  Sm  Sm8  1  0.625000  0.125000  0.125000  1.0
  Sm  Sm9  1  0.875000  0.375000  0.125000  1.0
  Sm  Sm10  1  0.625000  0.375000  0.375000  1.0
  Sm  Sm11  1  0.875000  0.125000  0.375000  1.0
  Sm  Sm12  1  0.625000  0.625000  0.625000  1.0
  Sm  Sm13  1  0.875000  0.875000  0.625000  1.0
  Sm  Sm14  1  0.625000  0.875000  0.875000  1.0
  Sm  Sm15  1  0.875000  0.625000  0.875000  1.0
  Tc  Tc16  1  0.500000  0.500000  0.000000  1.0
  Tc  Tc17  1  0.250000  0.250000  0.250000  1.0
  Tc  Tc18  1  0.500000  0.000000  0.500000  1.0
  Tc  Tc19  1  0.250000  0.750000  0.750000  1.0
  Tc  Tc20  1  0.000000  0.500000  0.500000  1.0
  Tc  Tc21  1  0.750000  0.250000  0.750000  1.0
  Tc  Tc22  1  0.000000  0.000000  0.000000  1.0
  Tc  Tc23  1  0.750000  0.750000  0.250000  1.0
  O  O24  1  0.127840  0.127840  0.372160  1.0
  O  O25  1  0.377840  0.377840  0.877840  1.0
  O  O26  1  0.122160  0.877840  0.122160  1.0
  O  O27  1  0.377840  0.622160  0.122160  1.0
  O  O28  1  0.127840  0.372160  0.127840  1.0
  O  O29  1  0.372160  0.127840  0.127840  1.0
  O  O30  1  0.122160  0.122160  0.877840  1.0
  O  O31  1  0.372160  0.372160  0.372160  1.0
  O  O32  1  0.127840  0.627840  0.872160  1.0
  O  O33  1  0.377840  0.877840  0.377840  1.0
  O  O34  1  0.122160  0.377840  0.622160  1.0
  O  O35  1  0.377840  0.122160  0.622160  1.0
  O  O36  1  0.127840  0.872160  0.627840  1.0
  O  O37  1  0.372160  0.627840  0.627840  1.0
  O  O38  1  0.122160  0.622160  0.377840  1.0
  O  O39  1  0.372160  0.872160  0.872160  1.0
  O  O40  1  0.627840  0.127840  0.872160  1.0
  O  O41  1  0.877840  0.377840  0.377840  1.0
  O  O42  1  0.622160  0.877840  0.622160  1.0
  O  O43  1  0.877840  0.622160  0.622160  1.0
  O  O44  1  0.627840  0.372160  0.627840  1.0
  O  O45  1  0.872160  0.127840  0.627840  1.0
  O  O46  1  0.622160  0.122160  0.377840  1.0
  O  O47  1  0.872160  0.372160  0.872160  1.0
  O  O48  1  0.627840  0.627840  0.372160  1.0
  O  O49  1  0.877840  0.877840  0.877840  1.0
  O  O50  1  0.622160  0.377840  0.122160  1.0
  O  O51  1  0.877840  0.122160  0.122160  1.0
  O  O52  1  0.627840  0.872160  0.127840  1.0
  O  O53  1  0.872160  0.627840  0.127840  1.0
  O  O54  1  0.622160  0.622160  0.877840  1.0
  O  O55  1  0.872160  0.872160  0.372160  1.0
