# generated using pymatgen
data_Nb2TeO4
_symmetry_space_group_name_H-M   'P 1'
_cell_length_a   9.27851376
_cell_length_b   9.27851376
_cell_length_c   9.27851376
_cell_angle_alpha   90.00000000
_cell_angle_beta   90.00000000
_cell_angle_gamma   90.00000000
_symmetry_Int_Tables_number   1
_chemical_formula_structural   Nb2TeO4
_chemical_formula_sum   'Nb16 Te8 O32'
_cell_volume   798.79483602
_cell_formula_units_Z   8
loop_
 _symmetry_equiv_pos_site_id
 _symmetry_equiv_pos_as_xyz
  1  'x, y, z'
loop_
 _atom_site_type_symbol
 _atom_site_label
 _atom_site_symmetry_multiplicity
 _atom_site_fract_x
 _atom_site_fract_y
 _atom_site_fract_z
 _atom_site_occupancy
  Nb  Nb0  1  0.125000  0.125000  0.625000  1.0
  Nb  Nb1  1  0.375000  0.375000  0.625000  1.0
  Nb  Nb2  1  0.125000  0.375000  0.875000  1.0
  Nb  Nb3  1  0.375000  0.125000  0.875000  1.0
  Nb  Nb4  1  0.125000  0.625000  0.125000  1.0
  Nb  Nb5  1  0.375000  0.875000  0.125000  1.0
  Nb  Nb6  1  0.125000  0.875000  0.375000  1.0
  Nb  Nb7  1  0.375000  0.625000  0.375000  1.0
  Nb  Nb8  1  0.625000  0.125000  0.125000  1.0
  Nb  Nb9  1  0.875000  0.375000  0.125000  1.0
  Nb  Nb10  1  0.625000  0.375000  0.375000  1.0
  Nb  Nb11  1  0.875000  0.125000  0.375000  1.0
  Nb  Nb12  1  0.625000  0.625000  0.625000  1.0
  Nb  Nb13  1  0.875000  0.875000  0.625000  1.0
  Nb  Nb14  1  0.625000  0.875000  0.875000  1.0
  Nb  Nb15  1  0.875000  0.625000  0.875000  1.0
  Te  Te16  1  0.500000  0.500000  0.000000  1.0
  Te  Te17  1  0.250000  0.250000  0.250000  1.0
  Te  Te18  1  0.500000  0.000000  0.500000  1.0
  Te  Te19  1  0.250000  0.750000  0.750000  1.0
  Te  Te20  1  0.000000  0.500000  0.500000  1.0
  Te  Te21  1  0.750000  0.250000  0.750000  1.0
  Te  Te22  1  0.000000  0.000000  0.000000  1.0
  Te  Te23  1  0.750000  0.750000  0.250000  1.0
  O  O24  1  0.096980  0.096980  0.403020  1.0
  O  O25  1  0.346980  0.346980  0.846980  1.0
  O  O26  1  0.153020  0.846980  0.153020  1.0
  O  O27  1  0.346980  0.653020  0.153020  1.0
  O  O28  1  0.096980  0.403020  0.096980  1.0
  O  O29  1  0.403020  0.096980  0.096980  1.0
  O  O30  1  0.153020  0.153020  0.846980  1.0
  O  O31  1  0.403020  0.403020  0.403020  1.0
  O  O32  1  0.096980  0.596980  0.903020  1.0
  O  O33  1  0.346980  0.846980  0.346980  1.0
  O  O34  1  0.153020  0.346980  0.653020  1.0
  O  O35  1  0.346980  0.153020  0.653020  1.0
  O  O36  1  0.096980  0.903020  0.596980  1.0
  O  O37  1  0.403020  0.596980  0.596980  1.0
  O  O38  1  0.153020  0.653020  0.346980  1.0
  O  O39  1  0.403020  0.903020  0.903020  1.0
  O  O40  1  0.596980  0.096980  0.903020  1.0
  O  O41  1  0.846980  0.346980  0.346980  1.0
  O  O42  1  0.653020  0.846980  0.653020  1.0
  O  O43  1  0.846980  0.653020  0.653020  1.0
  O  O44  1  0.596980  0.403020  0.596980  1.0
  O  O45  1  0.903020  0.096980  0.596980  1.0
  O  O46  1  0.653020  0.153020  0.346980  1.0
  O  O47  1  0.903020  0.403020  0.903020  1.0
  O  O48  1  0.596980  0.596980  0.403020  1.0
  O  O49  1  0.846980  0.846980  0.846980  1.0
  O  O50  1  0.653020  0.346980  0.153020  1.0
  O  O51  1  0.846980  0.153020  0.153020  1.0
  O  O52  1  0.596980  0.903020  0.096980  1.0
  O  O53  1  0.903020  0.596980  0.096980  1.0
  O  O54  1  0.653020  0.653020  0.846980  1.0
  O  O55  1  0.903020  0.903020  0.403020  1.0
