# generated using pymatgen
data_Th2TlO4
_symmetry_space_group_name_H-M   'P 1'
_cell_length_a   10.17136335
_cell_length_b   10.17136335
_cell_length_c   10.17136335
_cell_angle_alpha   90.00000000
_cell_angle_beta   90.00000000
_cell_angle_gamma   90.00000000
_symmetry_Int_Tables_number   1
_chemical_formula_structural   Th2TlO4
_chemical_formula_sum   'Th16 Tl8 O32'
_cell_volume   1052.29499966
_cell_formula_units_Z   8
loop_
 _symmetry_equiv_pos_site_id
 _symmetry_equiv_pos_as_xyz
  1  'x, y, z'
loop_
 _atom_site_type_symbol
 _atom_site_label
 _atom_site_symmetry_multiplicity
 _atom_site_fract_x
 _atom_site_fract_y
 _atom_site_fract_z
 _atom_site_occupancy
  Th  Th0  1  0.125000  0.125000  0.625000  1.0
  Th  Th1  1  0.375000  0.375000  0.625000  1.0
  Th  Th2  1  0.125000  0.375000  0.875000  1.0
  Th  Th3  1  0.375000  0.125000  0.875000  1.0
  Th  Th4  1  0.125000  0.625000  0.125000  1.0
  Th  Th5  1  0.375000  0.875000  0.125000  1.0
  Th  Th6  1  0.125000  0.875000  0.375000  1.0
  Th  Th7  1  0.375000  0.625000  0.375000  1.0
  Th  Th8  1  0.625000  0.125000  0.125000  1.0
  Th  Th9  1  0.875000  0.375000  0.125000  1.0
  Th  Th10  1  0.625000  0.375000  0.375000  1.0
  Th  Th11  1  0.875000  0.125000  0.375000  1.0
  Th  Th12  1  0.625000  0.625000  0.625000  1.0
  Th  Th13  1  0.875000  0.875000  0.625000  1.0
  Th  Th14  1  0.625000  0.875000  0.875000  1.0
  Th  Th15  1  0.875000  0.625000  0.875000  1.0
  Tl  Tl16  1  0.500000  0.500000  0.000000  1.0
  Tl  Tl17  1  0.250000  0.250000  0.250000  1.0
  Tl  Tl18  1  0.500000  0.000000  0.500000  1.0
  Tl  Tl19  1  0.250000  0.750000  0.750000  1.0
  Tl  Tl20  1  0.000000  0.500000  0.500000  1.0
  Tl  Tl21  1  0.750000  0.250000  0.750000  1.0
  Tl  Tl22  1  0.000000  0.000000  0.000000  1.0
  Tl  Tl23  1  0.750000  0.750000  0.250000  1.0
  O  O24  1  0.097693  0.097693  0.402307  1.0
  O  O25  1  0.347693  0.347693  0.847693  1.0
  O  O26  1  0.152307  0.847693  0.152307  1.0
  O  O27  1  0.347693  0.652307  0.152307  1.0
  O  O28  1  0.097693  0.402307  0.097693  1.0
  O  O29  1  0.402307  0.097693  0.097693  1.0
  O  O30  1  0.152307  0.152307  0.847693  1.0
  O  O31  1  0.402307  0.402307  0.402307  1.0
  O  O32  1  0.097693  0.597693  0.902307  1.0
  O  O33  1  0.347693  0.847693  0.347693  1.0
  O  O34  1  0.152307  0.347693  0.652307  1.0
  O  O35  1  0.347693  0.152307  0.652307  1.0
  O  O36  1  0.097693  0.902307  0.597693  1.0
  O  O37  1  0.402307  0.597693  0.597693  1.0
  O  O38  1  0.152307  0.652307  0.347693  1.0
  O  O39  1  0.402307  0.902307  0.902307  1.0
  O  O40  1  0.597693  0.097693  0.902307  1.0
  O  O41  1  0.847693  0.347693  0.347693  1.0
  O  O42  1  0.652307  0.847693  0.652307  1.0
  O  O43  1  0.847693  0.652307  0.652307  1.0
  O  O44  1  0.597693  0.402307  0.597693  1.0
  O  O45  1  0.902307  0.097693  0.597693  1.0
  O  O46  1  0.652307  0.152307  0.347693  1.0
  O  O47  1  0.902307  0.402307  0.902307  1.0
  O  O48  1  0.597693  0.597693  0.402307  1.0
  O  O49  1  0.847693  0.847693  0.847693  1.0
  O  O50  1  0.652307  0.347693  0.152307  1.0
  O  O51  1  0.847693  0.152307  0.152307  1.0
  O  O52  1  0.597693  0.902307  0.097693  1.0
  O  O53  1  0.902307  0.597693  0.097693  1.0
  O  O54  1  0.652307  0.652307  0.847693  1.0
  O  O55  1  0.902307  0.902307  0.402307  1.0
