# generated using pymatgen
data_Tm(SiO2)2
_symmetry_space_group_name_H-M   'P 1'
_cell_length_a   8.95736000
_cell_length_b   8.95736000
_cell_length_c   8.95736000
_cell_angle_alpha   90.00000000
_cell_angle_beta   90.00000000
_cell_angle_gamma   90.00000000
_symmetry_Int_Tables_number   1
_chemical_formula_structural   Tm(SiO2)2
_chemical_formula_sum   'Tm8 Si16 O32'
_cell_volume   718.68749389
_cell_formula_units_Z   8
loop_
 _symmetry_equiv_pos_site_id
 _symmetry_equiv_pos_as_xyz
  1  'x, y, z'
loop_
 _atom_site_type_symbol
 _atom_site_label
 _atom_site_symmetry_multiplicity
 _atom_site_fract_x
 _atom_site_fract_y
 _atom_site_fract_z
 _atom_site_occupancy
  Tm  Tm0  1  0.500000  0.500000  0.000000  1.0
  Tm  Tm1  1  0.250000  0.250000  0.250000  1.0
  Tm  Tm2  1  0.500000  0.000000  0.500000  1.0
  Tm  Tm3  1  0.250000  0.750000  0.750000  1.0
  Tm  Tm4  1  0.000000  0.500000  0.500000  1.0
  Tm  Tm5  1  0.750000  0.250000  0.750000  1.0
  Tm  Tm6  1  0.000000  0.000000  0.000000  1.0
  Tm  Tm7  1  0.750000  0.750000  0.250000  1.0
  Si  Si8  1  0.125000  0.125000  0.625000  1.0
  Si  Si9  1  0.375000  0.375000  0.625000  1.0
  Si  Si10  1  0.125000  0.375000  0.875000  1.0
  Si  Si11  1  0.375000  0.125000  0.875000  1.0
  Si  Si12  1  0.125000  0.625000  0.125000  1.0
  Si  Si13  1  0.375000  0.875000  0.125000  1.0
  Si  Si14  1  0.125000  0.875000  0.375000  1.0
  Si  Si15  1  0.375000  0.625000  0.375000  1.0
  Si  Si16  1  0.625000  0.125000  0.125000  1.0
  Si  Si17  1  0.875000  0.375000  0.125000  1.0
  Si  Si18  1  0.625000  0.375000  0.375000  1.0
  Si  Si19  1  0.875000  0.125000  0.375000  1.0
  Si  Si20  1  0.625000  0.625000  0.625000  1.0
  Si  Si21  1  0.875000  0.875000  0.625000  1.0
  Si  Si22  1  0.625000  0.875000  0.875000  1.0
  Si  Si23  1  0.875000  0.625000  0.875000  1.0
  O  O24  1  0.112173  0.112173  0.387827  1.0
  O  O25  1  0.362173  0.362173  0.862173  1.0
  O  O26  1  0.137827  0.862173  0.137827  1.0
  O  O27  1  0.362173  0.637827  0.137827  1.0
  O  O28  1  0.112173  0.387827  0.112173  1.0
  O  O29  1  0.387827  0.112173  0.112173  1.0
  O  O30  1  0.137827  0.137827  0.862173  1.0
  O  O31  1  0.387827  0.387827  0.387827  1.0
  O  O32  1  0.112173  0.612173  0.887827  1.0
  O  O33  1  0.362173  0.862173  0.362173  1.0
  O  O34  1  0.137827  0.362173  0.637827  1.0
  O  O35  1  0.362173  0.137827  0.637827  1.0
  O  O36  1  0.112173  0.887827  0.612173  1.0
  O  O37  1  0.387827  0.612173  0.612173  1.0
  O  O38  1  0.137827  0.637827  0.362173  1.0
  O  O39  1  0.387827  0.887827  0.887827  1.0
  O  O40  1  0.612173  0.112173  0.887827  1.0
  O  O41  1  0.862173  0.362173  0.362173  1.0
  O  O42  1  0.637827  0.862173  0.637827  1.0
  O  O43  1  0.862173  0.637827  0.637827  1.0
  O  O44  1  0.612173  0.387827  0.612173  1.0
  O  O45  1  0.887827  0.112173  0.612173  1.0
  O  O46  1  0.637827  0.137827  0.362173  1.0
  O  O47  1  0.887827  0.387827  0.887827  1.0
  O  O48  1  0.612173  0.612173  0.387827  1.0
  O  O49  1  0.862173  0.862173  0.862173  1.0
  O  O50  1  0.637827  0.362173  0.137827  1.0
  O  O51  1  0.862173  0.137827  0.137827  1.0
  O  O52  1  0.612173  0.887827  0.112173  1.0
  O  O53  1  0.887827  0.612173  0.112173  1.0
  O  O54  1  0.637827  0.637827  0.862173  1.0
  O  O55  1  0.887827  0.887827  0.387827  1.0
