# generated using pymatgen
data_UCr2O4
_symmetry_space_group_name_H-M   'P 1'
_cell_length_a   8.85265163
_cell_length_b   8.85265163
_cell_length_c   8.85265163
_cell_angle_alpha   90.00000000
_cell_angle_beta   90.00000000
_cell_angle_gamma   90.00000000
_symmetry_Int_Tables_number   1
_chemical_formula_structural   UCr2O4
_chemical_formula_sum   'U8 Cr16 O32'
_cell_volume   693.77735888
_cell_formula_units_Z   8
loop_
 _symmetry_equiv_pos_site_id
 _symmetry_equiv_pos_as_xyz
  1  'x, y, z'
loop_
 _atom_site_type_symbol
 _atom_site_label
 _atom_site_symmetry_multiplicity
 _atom_site_fract_x
 _atom_site_fract_y
 _atom_site_fract_z
 _atom_site_occupancy
  U  U0  1  0.500000  0.500000  0.000000  1.0
  U  U1  1  0.250000  0.250000  0.250000  1.0
  U  U2  1  0.500000  0.000000  0.500000  1.0
  U  U3  1  0.250000  0.750000  0.750000  1.0
  U  U4  1  0.000000  0.500000  0.500000  1.0
  U  U5  1  0.750000  0.250000  0.750000  1.0
  U  U6  1  0.000000  0.000000  0.000000  1.0
  U  U7  1  0.750000  0.750000  0.250000  1.0
  Cr  Cr8  1  0.125000  0.125000  0.625000  1.0
  Cr  Cr9  1  0.375000  0.375000  0.625000  1.0
  Cr  Cr10  1  0.125000  0.375000  0.875000  1.0
  Cr  Cr11  1  0.375000  0.125000  0.875000  1.0
  Cr  Cr12  1  0.125000  0.625000  0.125000  1.0
  Cr  Cr13  1  0.375000  0.875000  0.125000  1.0
  Cr  Cr14  1  0.125000  0.875000  0.375000  1.0
  Cr  Cr15  1  0.375000  0.625000  0.375000  1.0
  Cr  Cr16  1  0.625000  0.125000  0.125000  1.0
  Cr  Cr17  1  0.875000  0.375000  0.125000  1.0
  Cr  Cr18  1  0.625000  0.375000  0.375000  1.0
  Cr  Cr19  1  0.875000  0.125000  0.375000  1.0
  Cr  Cr20  1  0.625000  0.625000  0.625000  1.0
  Cr  Cr21  1  0.875000  0.875000  0.625000  1.0
  Cr  Cr22  1  0.625000  0.875000  0.875000  1.0
  Cr  Cr23  1  0.875000  0.625000  0.875000  1.0
  O  O24  1  0.108153  0.108153  0.391847  1.0
  O  O25  1  0.358153  0.358153  0.858153  1.0
  O  O26  1  0.141847  0.858153  0.141847  1.0
  O  O27  1  0.358153  0.641847  0.141847  1.0
  O  O28  1  0.108153  0.391847  0.108153  1.0
  O  O29  1  0.391847  0.108153  0.108153  1.0
  O  O30  1  0.141847  0.141847  0.858153  1.0
  O  O31  1  0.391847  0.391847  0.391847  1.0
  O  O32  1  0.108153  0.608153  0.891847  1.0
  O  O33  1  0.358153  0.858153  0.358153  1.0
  O  O34  1  0.141847  0.358153  0.641847  1.0
  O  O35  1  0.358153  0.141847  0.641847  1.0
  O  O36  1  0.108153  0.891847  0.608153  1.0
  O  O37  1  0.391847  0.608153  0.608153  1.0
  O  O38  1  0.141847  0.641847  0.358153  1.0
  O  O39  1  0.391847  0.891847  0.891847  1.0
  O  O40  1  0.608153  0.108153  0.891847  1.0
  O  O41  1  0.858153  0.358153  0.358153  1.0
  O  O42  1  0.641847  0.858153  0.641847  1.0
  O  O43  1  0.858153  0.641847  0.641847  1.0
  O  O44  1  0.608153  0.391847  0.608153  1.0
  O  O45  1  0.891847  0.108153  0.608153  1.0
  O  O46  1  0.641847  0.141847  0.358153  1.0
  O  O47  1  0.891847  0.391847  0.891847  1.0
  O  O48  1  0.608153  0.608153  0.391847  1.0
  O  O49  1  0.858153  0.858153  0.858153  1.0
  O  O50  1  0.641847  0.358153  0.141847  1.0
  O  O51  1  0.858153  0.141847  0.141847  1.0
  O  O52  1  0.608153  0.891847  0.108153  1.0
  O  O53  1  0.891847  0.608153  0.108153  1.0
  O  O54  1  0.641847  0.641847  0.858153  1.0
  O  O55  1  0.891847  0.891847  0.391847  1.0
