# generated using pymatgen
data_V(BO2)2
_symmetry_space_group_name_H-M   'P 1'
_cell_length_a   7.58609611
_cell_length_b   7.58609611
_cell_length_c   7.58609611
_cell_angle_alpha   90.00000000
_cell_angle_beta   90.00000000
_cell_angle_gamma   90.00000000
_symmetry_Int_Tables_number   1
_chemical_formula_structural   V(BO2)2
_chemical_formula_sum   'V8 B16 O32'
_cell_volume   436.57113839
_cell_formula_units_Z   8
loop_
 _symmetry_equiv_pos_site_id
 _symmetry_equiv_pos_as_xyz
  1  'x, y, z'
loop_
 _atom_site_type_symbol
 _atom_site_label
 _atom_site_symmetry_multiplicity
 _atom_site_fract_x
 _atom_site_fract_y
 _atom_site_fract_z
 _atom_site_occupancy
  V  V0  1  0.500000  0.500000  0.000000  1.0
  V  V1  1  0.250000  0.250000  0.250000  1.0
  V  V2  1  0.500000  0.000000  0.500000  1.0
  V  V3  1  0.250000  0.750000  0.750000  1.0
  V  V4  1  0.000000  0.500000  0.500000  1.0
  V  V5  1  0.750000  0.250000  0.750000  1.0
  V  V6  1  0.000000  0.000000  0.000000  1.0
  V  V7  1  0.750000  0.750000  0.250000  1.0
  B  B8  1  0.125000  0.125000  0.625000  1.0
  B  B9  1  0.375000  0.375000  0.625000  1.0
  B  B10  1  0.125000  0.375000  0.875000  1.0
  B  B11  1  0.375000  0.125000  0.875000  1.0
  B  B12  1  0.125000  0.625000  0.125000  1.0
  B  B13  1  0.375000  0.875000  0.125000  1.0
  B  B14  1  0.125000  0.875000  0.375000  1.0
  B  B15  1  0.375000  0.625000  0.375000  1.0
  B  B16  1  0.625000  0.125000  0.125000  1.0
  B  B17  1  0.875000  0.375000  0.125000  1.0
  B  B18  1  0.625000  0.375000  0.375000  1.0
  B  B19  1  0.875000  0.125000  0.375000  1.0
  B  B20  1  0.625000  0.625000  0.625000  1.0
  B  B21  1  0.875000  0.875000  0.625000  1.0
  B  B22  1  0.625000  0.875000  0.875000  1.0
  B  B23  1  0.875000  0.625000  0.875000  1.0
  O  O24  1  0.105533  0.105533  0.394467  1.0
  O  O25  1  0.355533  0.355533  0.855533  1.0
  O  O26  1  0.144467  0.855533  0.144467  1.0
  O  O27  1  0.355533  0.644467  0.144467  1.0
  O  O28  1  0.105533  0.394467  0.105533  1.0
  O  O29  1  0.394467  0.105533  0.105533  1.0
  O  O30  1  0.144467  0.144467  0.855533  1.0
  O  O31  1  0.394467  0.394467  0.394467  1.0
  O  O32  1  0.105533  0.605533  0.894467  1.0
  O  O33  1  0.355533  0.855533  0.355533  1.0
  O  O34  1  0.144467  0.355533  0.644467  1.0
  O  O35  1  0.355533  0.144467  0.644467  1.0
  O  O36  1  0.105533  0.894467  0.605533  1.0
  O  O37  1  0.394467  0.605533  0.605533  1.0
  O  O38  1  0.144467  0.644467  0.355533  1.0
  O  O39  1  0.394467  0.894467  0.894467  1.0
  O  O40  1  0.605533  0.105533  0.894467  1.0
  O  O41  1  0.855533  0.355533  0.355533  1.0
  O  O42  1  0.644467  0.855533  0.644467  1.0
  O  O43  1  0.855533  0.644467  0.644467  1.0
  O  O44  1  0.605533  0.394467  0.605533  1.0
  O  O45  1  0.894467  0.105533  0.605533  1.0
  O  O46  1  0.644467  0.144467  0.355533  1.0
  O  O47  1  0.894467  0.394467  0.894467  1.0
  O  O48  1  0.605533  0.605533  0.394467  1.0
  O  O49  1  0.855533  0.855533  0.855533  1.0
  O  O50  1  0.644467  0.355533  0.144467  1.0
  O  O51  1  0.855533  0.144467  0.144467  1.0
  O  O52  1  0.605533  0.894467  0.105533  1.0
  O  O53  1  0.894467  0.605533  0.105533  1.0
  O  O54  1  0.644467  0.644467  0.855533  1.0
  O  O55  1  0.894467  0.894467  0.394467  1.0
