# generated using pymatgen
data_Ge2WO4
_symmetry_space_group_name_H-M   'P 1'
_cell_length_a   9.38855372
_cell_length_b   9.38855372
_cell_length_c   9.38855372
_cell_angle_alpha   90.00000000
_cell_angle_beta   90.00000000
_cell_angle_gamma   90.00000000
_symmetry_Int_Tables_number   1
_chemical_formula_structural   Ge2WO4
_chemical_formula_sum   'Ge16 W8 O32'
_cell_volume   827.55351293
_cell_formula_units_Z   8
loop_
 _symmetry_equiv_pos_site_id
 _symmetry_equiv_pos_as_xyz
  1  'x, y, z'
loop_
 _atom_site_type_symbol
 _atom_site_label
 _atom_site_symmetry_multiplicity
 _atom_site_fract_x
 _atom_site_fract_y
 _atom_site_fract_z
 _atom_site_occupancy
  Ge  Ge0  1  0.125000  0.125000  0.625000  1.0
  Ge  Ge1  1  0.375000  0.375000  0.625000  1.0
  Ge  Ge2  1  0.125000  0.375000  0.875000  1.0
  Ge  Ge3  1  0.375000  0.125000  0.875000  1.0
  Ge  Ge4  1  0.125000  0.625000  0.125000  1.0
  Ge  Ge5  1  0.375000  0.875000  0.125000  1.0
  Ge  Ge6  1  0.125000  0.875000  0.375000  1.0
  Ge  Ge7  1  0.375000  0.625000  0.375000  1.0
  Ge  Ge8  1  0.625000  0.125000  0.125000  1.0
  Ge  Ge9  1  0.875000  0.375000  0.125000  1.0
  Ge  Ge10  1  0.625000  0.375000  0.375000  1.0
  Ge  Ge11  1  0.875000  0.125000  0.375000  1.0
  Ge  Ge12  1  0.625000  0.625000  0.625000  1.0
  Ge  Ge13  1  0.875000  0.875000  0.625000  1.0
  Ge  Ge14  1  0.625000  0.875000  0.875000  1.0
  Ge  Ge15  1  0.875000  0.625000  0.875000  1.0
  W  W16  1  0.500000  0.500000  0.000000  1.0
  W  W17  1  0.250000  0.250000  0.250000  1.0
  W  W18  1  0.500000  0.000000  0.500000  1.0
  W  W19  1  0.250000  0.750000  0.750000  1.0
  W  W20  1  0.000000  0.500000  0.500000  1.0
  W  W21  1  0.750000  0.250000  0.750000  1.0
  W  W22  1  0.000000  0.000000  0.000000  1.0
  W  W23  1  0.750000  0.750000  0.250000  1.0
  O  O24  1  0.137893  0.137893  0.362107  1.0
  O  O25  1  0.387893  0.387893  0.887893  1.0
  O  O26  1  0.112107  0.887893  0.112107  1.0
  O  O27  1  0.387893  0.612107  0.112107  1.0
  O  O28  1  0.137893  0.362107  0.137893  1.0
  O  O29  1  0.362107  0.137893  0.137893  1.0
  O  O30  1  0.112107  0.112107  0.887893  1.0
  O  O31  1  0.362107  0.362107  0.362107  1.0
  O  O32  1  0.137893  0.637893  0.862107  1.0
  O  O33  1  0.387893  0.887893  0.387893  1.0
  O  O34  1  0.112107  0.387893  0.612107  1.0
  O  O35  1  0.387893  0.112107  0.612107  1.0
  O  O36  1  0.137893  0.862107  0.637893  1.0
  O  O37  1  0.362107  0.637893  0.637893  1.0
  O  O38  1  0.112107  0.612107  0.387893  1.0
  O  O39  1  0.362107  0.862107  0.862107  1.0
  O  O40  1  0.637893  0.137893  0.862107  1.0
  O  O41  1  0.887893  0.387893  0.387893  1.0
  O  O42  1  0.612107  0.887893  0.612107  1.0
  O  O43  1  0.887893  0.612107  0.612107  1.0
  O  O44  1  0.637893  0.362107  0.637893  1.0
  O  O45  1  0.862107  0.137893  0.637893  1.0
  O  O46  1  0.612107  0.112107  0.387893  1.0
  O  O47  1  0.862107  0.362107  0.862107  1.0
  O  O48  1  0.637893  0.637893  0.362107  1.0
  O  O49  1  0.887893  0.887893  0.887893  1.0
  O  O50  1  0.612107  0.387893  0.112107  1.0
  O  O51  1  0.887893  0.112107  0.112107  1.0
  O  O52  1  0.637893  0.862107  0.137893  1.0
  O  O53  1  0.862107  0.637893  0.137893  1.0
  O  O54  1  0.612107  0.612107  0.887893  1.0
  O  O55  1  0.862107  0.862107  0.362107  1.0
