# generated using pymatgen
data_Tb2WO4
_symmetry_space_group_name_H-M   'P 1'
_cell_length_a   9.30017951
_cell_length_b   9.30017951
_cell_length_c   9.30017951
_cell_angle_alpha   90.00000000
_cell_angle_beta   90.00000000
_cell_angle_gamma   90.00000000
_symmetry_Int_Tables_number   1
_chemical_formula_structural   Tb2WO4
_chemical_formula_sum   'Tb16 W8 O32'
_cell_volume   804.40357918
_cell_formula_units_Z   8
loop_
 _symmetry_equiv_pos_site_id
 _symmetry_equiv_pos_as_xyz
  1  'x, y, z'
loop_
 _atom_site_type_symbol
 _atom_site_label
 _atom_site_symmetry_multiplicity
 _atom_site_fract_x
 _atom_site_fract_y
 _atom_site_fract_z
 _atom_site_occupancy
  Tb  Tb0  1  0.125000  0.125000  0.625000  1.0
  Tb  Tb1  1  0.375000  0.375000  0.625000  1.0
  Tb  Tb2  1  0.125000  0.375000  0.875000  1.0
  Tb  Tb3  1  0.375000  0.125000  0.875000  1.0
  Tb  Tb4  1  0.125000  0.625000  0.125000  1.0
  Tb  Tb5  1  0.375000  0.875000  0.125000  1.0
  Tb  Tb6  1  0.125000  0.875000  0.375000  1.0
  Tb  Tb7  1  0.375000  0.625000  0.375000  1.0
  Tb  Tb8  1  0.625000  0.125000  0.125000  1.0
  Tb  Tb9  1  0.875000  0.375000  0.125000  1.0
  Tb  Tb10  1  0.625000  0.375000  0.375000  1.0
  Tb  Tb11  1  0.875000  0.125000  0.375000  1.0
  Tb  Tb12  1  0.625000  0.625000  0.625000  1.0
  Tb  Tb13  1  0.875000  0.875000  0.625000  1.0
  Tb  Tb14  1  0.625000  0.875000  0.875000  1.0
  Tb  Tb15  1  0.875000  0.625000  0.875000  1.0
  W  W16  1  0.500000  0.500000  0.000000  1.0
  W  W17  1  0.250000  0.250000  0.250000  1.0
  W  W18  1  0.500000  0.000000  0.500000  1.0
  W  W19  1  0.250000  0.750000  0.750000  1.0
  W  W20  1  0.000000  0.500000  0.500000  1.0
  W  W21  1  0.750000  0.250000  0.750000  1.0
  W  W22  1  0.000000  0.000000  0.000000  1.0
  W  W23  1  0.750000  0.750000  0.250000  1.0
  O  O24  1  0.127333  0.127333  0.372667  1.0
  O  O25  1  0.377333  0.377333  0.877333  1.0
  O  O26  1  0.122667  0.877333  0.122667  1.0
  O  O27  1  0.377333  0.622667  0.122667  1.0
  O  O28  1  0.127333  0.372667  0.127333  1.0
  O  O29  1  0.372667  0.127333  0.127333  1.0
  O  O30  1  0.122667  0.122667  0.877333  1.0
  O  O31  1  0.372667  0.372667  0.372667  1.0
  O  O32  1  0.127333  0.627333  0.872667  1.0
  O  O33  1  0.377333  0.877333  0.377333  1.0
  O  O34  1  0.122667  0.377333  0.622667  1.0
  O  O35  1  0.377333  0.122667  0.622667  1.0
  O  O36  1  0.127333  0.872667  0.627333  1.0
  O  O37  1  0.372667  0.627333  0.627333  1.0
  O  O38  1  0.122667  0.622667  0.377333  1.0
  O  O39  1  0.372667  0.872667  0.872667  1.0
  O  O40  1  0.627333  0.127333  0.872667  1.0
  O  O41  1  0.877333  0.377333  0.377333  1.0
  O  O42  1  0.622667  0.877333  0.622667  1.0
  O  O43  1  0.877333  0.622667  0.622667  1.0
  O  O44  1  0.627333  0.372667  0.627333  1.0
  O  O45  1  0.872667  0.127333  0.627333  1.0
  O  O46  1  0.622667  0.122667  0.377333  1.0
  O  O47  1  0.872667  0.372667  0.872667  1.0
  O  O48  1  0.627333  0.627333  0.372667  1.0
  O  O49  1  0.877333  0.877333  0.877333  1.0
  O  O50  1  0.622667  0.377333  0.122667  1.0
  O  O51  1  0.877333  0.122667  0.122667  1.0
  O  O52  1  0.627333  0.872667  0.127333  1.0
  O  O53  1  0.872667  0.627333  0.127333  1.0
  O  O54  1  0.622667  0.622667  0.877333  1.0
  O  O55  1  0.872667  0.872667  0.372667  1.0
