# generated using pymatgen
data_Y(TcO2)2
_symmetry_space_group_name_H-M   'P 1'
_cell_length_a   8.93944192
_cell_length_b   8.93944192
_cell_length_c   8.93944192
_cell_angle_alpha   90.00000000
_cell_angle_beta   90.00000000
_cell_angle_gamma   90.00000000
_symmetry_Int_Tables_number   1
_chemical_formula_structural   Y(TcO2)2
_chemical_formula_sum   'Y8 Tc16 O32'
_cell_volume   714.38318050
_cell_formula_units_Z   8
loop_
 _symmetry_equiv_pos_site_id
 _symmetry_equiv_pos_as_xyz
  1  'x, y, z'
loop_
 _atom_site_type_symbol
 _atom_site_label
 _atom_site_symmetry_multiplicity
 _atom_site_fract_x
 _atom_site_fract_y
 _atom_site_fract_z
 _atom_site_occupancy
  Y  Y0  1  0.500000  0.500000  0.000000  1.0
  Y  Y1  1  0.250000  0.250000  0.250000  1.0
  Y  Y2  1  0.500000  0.000000  0.500000  1.0
  Y  Y3  1  0.250000  0.750000  0.750000  1.0
  Y  Y4  1  0.000000  0.500000  0.500000  1.0
  Y  Y5  1  0.750000  0.250000  0.750000  1.0
  Y  Y6  1  0.000000  0.000000  0.000000  1.0
  Y  Y7  1  0.750000  0.750000  0.250000  1.0
  Tc  Tc8  1  0.125000  0.125000  0.625000  1.0
  Tc  Tc9  1  0.375000  0.375000  0.625000  1.0
  Tc  Tc10  1  0.125000  0.375000  0.875000  1.0
  Tc  Tc11  1  0.375000  0.125000  0.875000  1.0
  Tc  Tc12  1  0.125000  0.625000  0.125000  1.0
  Tc  Tc13  1  0.375000  0.875000  0.125000  1.0
  Tc  Tc14  1  0.125000  0.875000  0.375000  1.0
  Tc  Tc15  1  0.375000  0.625000  0.375000  1.0
  Tc  Tc16  1  0.625000  0.125000  0.125000  1.0
  Tc  Tc17  1  0.875000  0.375000  0.125000  1.0
  Tc  Tc18  1  0.625000  0.375000  0.375000  1.0
  Tc  Tc19  1  0.875000  0.125000  0.375000  1.0
  Tc  Tc20  1  0.625000  0.625000  0.625000  1.0
  Tc  Tc21  1  0.875000  0.875000  0.625000  1.0
  Tc  Tc22  1  0.625000  0.875000  0.875000  1.0
  Tc  Tc23  1  0.875000  0.625000  0.875000  1.0
  O  O24  1  0.112373  0.112373  0.387627  1.0
  O  O25  1  0.362373  0.362373  0.862373  1.0
  O  O26  1  0.137627  0.862373  0.137627  1.0
  O  O27  1  0.362373  0.637627  0.137627  1.0
  O  O28  1  0.112373  0.387627  0.112373  1.0
  O  O29  1  0.387627  0.112373  0.112373  1.0
  O  O30  1  0.137627  0.137627  0.862373  1.0
  O  O31  1  0.387627  0.387627  0.387627  1.0
  O  O32  1  0.112373  0.612373  0.887627  1.0
  O  O33  1  0.362373  0.862373  0.362373  1.0
  O  O34  1  0.137627  0.362373  0.637627  1.0
  O  O35  1  0.362373  0.137627  0.637627  1.0
  O  O36  1  0.112373  0.887627  0.612373  1.0
  O  O37  1  0.387627  0.612373  0.612373  1.0
  O  O38  1  0.137627  0.637627  0.362373  1.0
  O  O39  1  0.387627  0.887627  0.887627  1.0
  O  O40  1  0.612373  0.112373  0.887627  1.0
  O  O41  1  0.862373  0.362373  0.362373  1.0
  O  O42  1  0.637627  0.862373  0.637627  1.0
  O  O43  1  0.862373  0.637627  0.637627  1.0
  O  O44  1  0.612373  0.387627  0.612373  1.0
  O  O45  1  0.887627  0.112373  0.612373  1.0
  O  O46  1  0.637627  0.137627  0.362373  1.0
  O  O47  1  0.887627  0.387627  0.887627  1.0
  O  O48  1  0.612373  0.612373  0.387627  1.0
  O  O49  1  0.862373  0.862373  0.862373  1.0
  O  O50  1  0.637627  0.362373  0.137627  1.0
  O  O51  1  0.862373  0.137627  0.137627  1.0
  O  O52  1  0.612373  0.887627  0.112373  1.0
  O  O53  1  0.887627  0.612373  0.112373  1.0
  O  O54  1  0.637627  0.637627  0.862373  1.0
  O  O55  1  0.887627  0.887627  0.387627  1.0
