# generated using pymatgen
data_Zn(AgO2)2
_symmetry_space_group_name_H-M   'P 1'
_cell_length_a   8.96847572
_cell_length_b   8.96847572
_cell_length_c   8.96847572
_cell_angle_alpha   90.00000000
_cell_angle_beta   90.00000000
_cell_angle_gamma   90.00000000
_symmetry_Int_Tables_number   1
_chemical_formula_structural   Zn(AgO2)2
_chemical_formula_sum   'Zn8 Ag16 O32'
_cell_volume   721.36640120
_cell_formula_units_Z   8
loop_
 _symmetry_equiv_pos_site_id
 _symmetry_equiv_pos_as_xyz
  1  'x, y, z'
loop_
 _atom_site_type_symbol
 _atom_site_label
 _atom_site_symmetry_multiplicity
 _atom_site_fract_x
 _atom_site_fract_y
 _atom_site_fract_z
 _atom_site_occupancy
  Zn  Zn0  1  0.500000  0.500000  0.000000  1.0
  Zn  Zn1  1  0.250000  0.250000  0.250000  1.0
  Zn  Zn2  1  0.500000  0.000000  0.500000  1.0
  Zn  Zn3  1  0.250000  0.750000  0.750000  1.0
  Zn  Zn4  1  0.000000  0.500000  0.500000  1.0
  Zn  Zn5  1  0.750000  0.250000  0.750000  1.0
  Zn  Zn6  1  0.000000  0.000000  0.000000  1.0
  Zn  Zn7  1  0.750000  0.750000  0.250000  1.0
  Ag  Ag8  1  0.125000  0.125000  0.625000  1.0
  Ag  Ag9  1  0.375000  0.375000  0.625000  1.0
  Ag  Ag10  1  0.125000  0.375000  0.875000  1.0
  Ag  Ag11  1  0.375000  0.125000  0.875000  1.0
  Ag  Ag12  1  0.125000  0.625000  0.125000  1.0
  Ag  Ag13  1  0.375000  0.875000  0.125000  1.0
  Ag  Ag14  1  0.125000  0.875000  0.375000  1.0
  Ag  Ag15  1  0.375000  0.625000  0.375000  1.0
  Ag  Ag16  1  0.625000  0.125000  0.125000  1.0
  Ag  Ag17  1  0.875000  0.375000  0.125000  1.0
  Ag  Ag18  1  0.625000  0.375000  0.375000  1.0
  Ag  Ag19  1  0.875000  0.125000  0.375000  1.0
  Ag  Ag20  1  0.625000  0.625000  0.625000  1.0
  Ag  Ag21  1  0.875000  0.875000  0.625000  1.0
  Ag  Ag22  1  0.625000  0.875000  0.875000  1.0
  Ag  Ag23  1  0.875000  0.625000  0.875000  1.0
  O  O24  1  0.120840  0.120840  0.379160  1.0
  O  O25  1  0.370840  0.370840  0.870840  1.0
  O  O26  1  0.129160  0.870840  0.129160  1.0
  O  O27  1  0.370840  0.629160  0.129160  1.0
  O  O28  1  0.120840  0.379160  0.120840  1.0
  O  O29  1  0.379160  0.120840  0.120840  1.0
  O  O30  1  0.129160  0.129160  0.870840  1.0
  O  O31  1  0.379160  0.379160  0.379160  1.0
  O  O32  1  0.120840  0.620840  0.879160  1.0
  O  O33  1  0.370840  0.870840  0.370840  1.0
  O  O34  1  0.129160  0.370840  0.629160  1.0
  O  O35  1  0.370840  0.129160  0.629160  1.0
  O  O36  1  0.120840  0.879160  0.620840  1.0
  O  O37  1  0.379160  0.620840  0.620840  1.0
  O  O38  1  0.129160  0.629160  0.370840  1.0
  O  O39  1  0.379160  0.879160  0.879160  1.0
  O  O40  1  0.620840  0.120840  0.879160  1.0
  O  O41  1  0.870840  0.370840  0.370840  1.0
  O  O42  1  0.629160  0.870840  0.629160  1.0
  O  O43  1  0.870840  0.629160  0.629160  1.0
  O  O44  1  0.620840  0.379160  0.620840  1.0
  O  O45  1  0.879160  0.120840  0.620840  1.0
  O  O46  1  0.629160  0.129160  0.370840  1.0
  O  O47  1  0.879160  0.379160  0.879160  1.0
  O  O48  1  0.620840  0.620840  0.379160  1.0
  O  O49  1  0.870840  0.870840  0.870840  1.0
  O  O50  1  0.629160  0.370840  0.129160  1.0
  O  O51  1  0.870840  0.129160  0.129160  1.0
  O  O52  1  0.620840  0.879160  0.120840  1.0
  O  O53  1  0.879160  0.620840  0.120840  1.0
  O  O54  1  0.629160  0.629160  0.870840  1.0
  O  O55  1  0.879160  0.879160  0.379160  1.0
