# generated using pymatgen
data_Tl2ZnO4
_symmetry_space_group_name_H-M   'P 1'
_cell_length_a   9.22157752
_cell_length_b   9.22157752
_cell_length_c   9.22157752
_cell_angle_alpha   90.00000000
_cell_angle_beta   90.00000000
_cell_angle_gamma   90.00000000
_symmetry_Int_Tables_number   1
_chemical_formula_structural   Tl2ZnO4
_chemical_formula_sum   'Tl16 Zn8 O32'
_cell_volume   784.17982505
_cell_formula_units_Z   8
loop_
 _symmetry_equiv_pos_site_id
 _symmetry_equiv_pos_as_xyz
  1  'x, y, z'
loop_
 _atom_site_type_symbol
 _atom_site_label
 _atom_site_symmetry_multiplicity
 _atom_site_fract_x
 _atom_site_fract_y
 _atom_site_fract_z
 _atom_site_occupancy
  Tl  Tl0  1  0.125000  0.125000  0.625000  1.0
  Tl  Tl1  1  0.375000  0.375000  0.625000  1.0
  Tl  Tl2  1  0.125000  0.375000  0.875000  1.0
  Tl  Tl3  1  0.375000  0.125000  0.875000  1.0
  Tl  Tl4  1  0.125000  0.625000  0.125000  1.0
  Tl  Tl5  1  0.375000  0.875000  0.125000  1.0
  Tl  Tl6  1  0.125000  0.875000  0.375000  1.0
  Tl  Tl7  1  0.375000  0.625000  0.375000  1.0
  Tl  Tl8  1  0.625000  0.125000  0.125000  1.0
  Tl  Tl9  1  0.875000  0.375000  0.125000  1.0
  Tl  Tl10  1  0.625000  0.375000  0.375000  1.0
  Tl  Tl11  1  0.875000  0.125000  0.375000  1.0
  Tl  Tl12  1  0.625000  0.625000  0.625000  1.0
  Tl  Tl13  1  0.875000  0.875000  0.625000  1.0
  Tl  Tl14  1  0.625000  0.875000  0.875000  1.0
  Tl  Tl15  1  0.875000  0.625000  0.875000  1.0
  Zn  Zn16  1  0.500000  0.500000  0.000000  1.0
  Zn  Zn17  1  0.250000  0.250000  0.250000  1.0
  Zn  Zn18  1  0.500000  0.000000  0.500000  1.0
  Zn  Zn19  1  0.250000  0.750000  0.750000  1.0
  Zn  Zn20  1  0.000000  0.500000  0.500000  1.0
  Zn  Zn21  1  0.750000  0.250000  0.750000  1.0
  Zn  Zn22  1  0.000000  0.000000  0.000000  1.0
  Zn  Zn23  1  0.750000  0.750000  0.250000  1.0
  O  O24  1  0.123487  0.123487  0.376513  1.0
  O  O25  1  0.373487  0.373487  0.873487  1.0
  O  O26  1  0.126513  0.873487  0.126513  1.0
  O  O27  1  0.373487  0.626513  0.126513  1.0
  O  O28  1  0.123487  0.376513  0.123487  1.0
  O  O29  1  0.376513  0.123487  0.123487  1.0
  O  O30  1  0.126513  0.126513  0.873487  1.0
  O  O31  1  0.376513  0.376513  0.376513  1.0
  O  O32  1  0.123487  0.623487  0.876513  1.0
  O  O33  1  0.373487  0.873487  0.373487  1.0
  O  O34  1  0.126513  0.373487  0.626513  1.0
  O  O35  1  0.373487  0.126513  0.626513  1.0
  O  O36  1  0.123487  0.876513  0.623487  1.0
  O  O37  1  0.376513  0.623487  0.623487  1.0
  O  O38  1  0.126513  0.626513  0.373487  1.0
  O  O39  1  0.376513  0.876513  0.876513  1.0
  O  O40  1  0.623487  0.123487  0.876513  1.0
  O  O41  1  0.873487  0.373487  0.373487  1.0
  O  O42  1  0.626513  0.873487  0.626513  1.0
  O  O43  1  0.873487  0.626513  0.626513  1.0
  O  O44  1  0.623487  0.376513  0.623487  1.0
  O  O45  1  0.876513  0.123487  0.623487  1.0
  O  O46  1  0.626513  0.126513  0.373487  1.0
  O  O47  1  0.876513  0.376513  0.876513  1.0
  O  O48  1  0.623487  0.623487  0.376513  1.0
  O  O49  1  0.873487  0.873487  0.873487  1.0
  O  O50  1  0.626513  0.373487  0.126513  1.0
  O  O51  1  0.873487  0.126513  0.126513  1.0
  O  O52  1  0.623487  0.876513  0.123487  1.0
  O  O53  1  0.876513  0.623487  0.123487  1.0
  O  O54  1  0.626513  0.626513  0.873487  1.0
  O  O55  1  0.876513  0.876513  0.376513  1.0
