# generated using pymatgen
data_Cs2ZrO4
_symmetry_space_group_name_H-M   'P 1'
_cell_length_a   11.22349582
_cell_length_b   11.22349582
_cell_length_c   11.22349582
_cell_angle_alpha   90.00000000
_cell_angle_beta   90.00000000
_cell_angle_gamma   90.00000000
_symmetry_Int_Tables_number   1
_chemical_formula_structural   Cs2ZrO4
_chemical_formula_sum   'Cs16 Zr8 O32'
_cell_volume   1413.78850738
_cell_formula_units_Z   8
loop_
 _symmetry_equiv_pos_site_id
 _symmetry_equiv_pos_as_xyz
  1  'x, y, z'
loop_
 _atom_site_type_symbol
 _atom_site_label
 _atom_site_symmetry_multiplicity
 _atom_site_fract_x
 _atom_site_fract_y
 _atom_site_fract_z
 _atom_site_occupancy
  Cs  Cs0  1  0.125000  0.125000  0.625000  1.0
  Cs  Cs1  1  0.375000  0.375000  0.625000  1.0
  Cs  Cs2  1  0.125000  0.375000  0.875000  1.0
  Cs  Cs3  1  0.375000  0.125000  0.875000  1.0
  Cs  Cs4  1  0.125000  0.625000  0.125000  1.0
  Cs  Cs5  1  0.375000  0.875000  0.125000  1.0
  Cs  Cs6  1  0.125000  0.875000  0.375000  1.0
  Cs  Cs7  1  0.375000  0.625000  0.375000  1.0
  Cs  Cs8  1  0.625000  0.125000  0.125000  1.0
  Cs  Cs9  1  0.875000  0.375000  0.125000  1.0
  Cs  Cs10  1  0.625000  0.375000  0.375000  1.0
  Cs  Cs11  1  0.875000  0.125000  0.375000  1.0
  Cs  Cs12  1  0.625000  0.625000  0.625000  1.0
  Cs  Cs13  1  0.875000  0.875000  0.625000  1.0
  Cs  Cs14  1  0.625000  0.875000  0.875000  1.0
  Cs  Cs15  1  0.875000  0.625000  0.875000  1.0
  Zr  Zr16  1  0.500000  0.500000  0.000000  1.0
  Zr  Zr17  1  0.250000  0.250000  0.250000  1.0
  Zr  Zr18  1  0.500000  0.000000  0.500000  1.0
  Zr  Zr19  1  0.250000  0.750000  0.750000  1.0
  Zr  Zr20  1  0.000000  0.500000  0.500000  1.0
  Zr  Zr21  1  0.750000  0.250000  0.750000  1.0
  Zr  Zr22  1  0.000000  0.000000  0.000000  1.0
  Zr  Zr23  1  0.750000  0.750000  0.250000  1.0
  O  O24  1  0.147737  0.147737  0.352263  1.0
  O  O25  1  0.397737  0.397737  0.897737  1.0
  O  O26  1  0.102263  0.897737  0.102263  1.0
  O  O27  1  0.397737  0.602263  0.102263  1.0
  O  O28  1  0.147737  0.352263  0.147737  1.0
  O  O29  1  0.352263  0.147737  0.147737  1.0
  O  O30  1  0.102263  0.102263  0.897737  1.0
  O  O31  1  0.352263  0.352263  0.352263  1.0
  O  O32  1  0.147737  0.647737  0.852263  1.0
  O  O33  1  0.397737  0.897737  0.397737  1.0
  O  O34  1  0.102263  0.397737  0.602263  1.0
  O  O35  1  0.397737  0.102263  0.602263  1.0
  O  O36  1  0.147737  0.852263  0.647737  1.0
  O  O37  1  0.352263  0.647737  0.647737  1.0
  O  O38  1  0.102263  0.602263  0.397737  1.0
  O  O39  1  0.352263  0.852263  0.852263  1.0
  O  O40  1  0.647737  0.147737  0.852263  1.0
  O  O41  1  0.897737  0.397737  0.397737  1.0
  O  O42  1  0.602263  0.897737  0.602263  1.0
  O  O43  1  0.897737  0.602263  0.602263  1.0
  O  O44  1  0.647737  0.352263  0.647737  1.0
  O  O45  1  0.852263  0.147737  0.647737  1.0
  O  O46  1  0.602263  0.102263  0.397737  1.0
  O  O47  1  0.852263  0.352263  0.852263  1.0
  O  O48  1  0.647737  0.647737  0.352263  1.0
  O  O49  1  0.897737  0.897737  0.897737  1.0
  O  O50  1  0.602263  0.397737  0.102263  1.0
  O  O51  1  0.897737  0.102263  0.102263  1.0
  O  O52  1  0.647737  0.852263  0.147737  1.0
  O  O53  1  0.852263  0.647737  0.147737  1.0
  O  O54  1  0.602263  0.602263  0.897737  1.0
  O  O55  1  0.852263  0.852263  0.352263  1.0
