# generated using pymatgen
data_Dy2ZrO4
_symmetry_space_group_name_H-M   'P 1'
_cell_length_a   9.34237965
_cell_length_b   9.34237965
_cell_length_c   9.34237965
_cell_angle_alpha   90.00000000
_cell_angle_beta   90.00000000
_cell_angle_gamma   90.00000000
_symmetry_Int_Tables_number   1
_chemical_formula_structural   Dy2ZrO4
_chemical_formula_sum   'Dy16 Zr8 O32'
_cell_volume   815.40343218
_cell_formula_units_Z   8
loop_
 _symmetry_equiv_pos_site_id
 _symmetry_equiv_pos_as_xyz
  1  'x, y, z'
loop_
 _atom_site_type_symbol
 _atom_site_label
 _atom_site_symmetry_multiplicity
 _atom_site_fract_x
 _atom_site_fract_y
 _atom_site_fract_z
 _atom_site_occupancy
  Dy  Dy0  1  0.125000  0.125000  0.625000  1.0
  Dy  Dy1  1  0.375000  0.375000  0.625000  1.0
  Dy  Dy2  1  0.125000  0.375000  0.875000  1.0
  Dy  Dy3  1  0.375000  0.125000  0.875000  1.0
  Dy  Dy4  1  0.125000  0.625000  0.125000  1.0
  Dy  Dy5  1  0.375000  0.875000  0.125000  1.0
  Dy  Dy6  1  0.125000  0.875000  0.375000  1.0
  Dy  Dy7  1  0.375000  0.625000  0.375000  1.0
  Dy  Dy8  1  0.625000  0.125000  0.125000  1.0
  Dy  Dy9  1  0.875000  0.375000  0.125000  1.0
  Dy  Dy10  1  0.625000  0.375000  0.375000  1.0
  Dy  Dy11  1  0.875000  0.125000  0.375000  1.0
  Dy  Dy12  1  0.625000  0.625000  0.625000  1.0
  Dy  Dy13  1  0.875000  0.875000  0.625000  1.0
  Dy  Dy14  1  0.625000  0.875000  0.875000  1.0
  Dy  Dy15  1  0.875000  0.625000  0.875000  1.0
  Zr  Zr16  1  0.500000  0.500000  0.000000  1.0
  Zr  Zr17  1  0.250000  0.250000  0.250000  1.0
  Zr  Zr18  1  0.500000  0.000000  0.500000  1.0
  Zr  Zr19  1  0.250000  0.750000  0.750000  1.0
  Zr  Zr20  1  0.000000  0.500000  0.500000  1.0
  Zr  Zr21  1  0.750000  0.250000  0.750000  1.0
  Zr  Zr22  1  0.000000  0.000000  0.000000  1.0
  Zr  Zr23  1  0.750000  0.750000  0.250000  1.0
  O  O24  1  0.126073  0.126073  0.373927  1.0
  O  O25  1  0.376073  0.376073  0.876073  1.0
  O  O26  1  0.123927  0.876073  0.123927  1.0
  O  O27  1  0.376073  0.623927  0.123927  1.0
  O  O28  1  0.126073  0.373927  0.126073  1.0
  O  O29  1  0.373927  0.126073  0.126073  1.0
  O  O30  1  0.123927  0.123927  0.876073  1.0
  O  O31  1  0.373927  0.373927  0.373927  1.0
  O  O32  1  0.126073  0.626073  0.873927  1.0
  O  O33  1  0.376073  0.876073  0.376073  1.0
  O  O34  1  0.123927  0.376073  0.623927  1.0
  O  O35  1  0.376073  0.123927  0.623927  1.0
  O  O36  1  0.126073  0.873927  0.626073  1.0
  O  O37  1  0.373927  0.626073  0.626073  1.0
  O  O38  1  0.123927  0.623927  0.376073  1.0
  O  O39  1  0.373927  0.873927  0.873927  1.0
  O  O40  1  0.626073  0.126073  0.873927  1.0
  O  O41  1  0.876073  0.376073  0.376073  1.0
  O  O42  1  0.623927  0.876073  0.623927  1.0
  O  O43  1  0.876073  0.623927  0.623927  1.0
  O  O44  1  0.626073  0.373927  0.626073  1.0
  O  O45  1  0.873927  0.126073  0.626073  1.0
  O  O46  1  0.623927  0.123927  0.376073  1.0
  O  O47  1  0.873927  0.373927  0.873927  1.0
  O  O48  1  0.626073  0.626073  0.373927  1.0
  O  O49  1  0.876073  0.876073  0.876073  1.0
  O  O50  1  0.623927  0.376073  0.123927  1.0
  O  O51  1  0.876073  0.123927  0.123927  1.0
  O  O52  1  0.626073  0.873927  0.126073  1.0
  O  O53  1  0.873927  0.626073  0.126073  1.0
  O  O54  1  0.623927  0.623927  0.876073  1.0
  O  O55  1  0.873927  0.873927  0.373927  1.0
